[General]
network = tsn.TSN_Network
sim-time-limit = 1.0s

# enable multiple canvas visualizers
*.visualizer.typename = "IntegratedMultiCanvasVisualizer"

# network route activity visualization
*.visualizer.numNetworkRouteVisualizers = 1
*.visualizer.networkRouteVisualizer[*].displayRoutes = true
*.visualizer.networkRouteVisualizer[0].packetFilter = "\"ats*\""
*.visualizer.networkRouteVisualizer[0].lineColor = "red1"

*.*.eth[*].bitrate = 1Gbps

# packet processing delay
*.*.bridging.directionReverser.delayer.typename = "PacketDelayer"
*.*.bridging.directionReverser.delayer.delay = 8us

*.ES_1.numApps = 2
*.ES_2.numApps = 3
*.ES_3.numApps = 5
*.ES_4.numApps = 3
*.ES_5.numApps = 6
*.ES_6.numApps = 4
*.ES_7.numApps = 4
*.ES_8.numApps = 3
*.ES_9.numApps = 6
*.ES_10.numApps = 3
*.ES_11.numApps = 6
*.ES_12.numApps = 5
*.ES_13.numApps = 5
*.ES_14.numApps = 4
*.ES_15.numApps = 5
*.ES_16.numApps = 6
*.ES_17.numApps = 3
*.ES_18.numApps = 4
*.ES_19.numApps = 4
*.ES_20.numApps = 3
*.ES_21.numApps = 4
*.ES_22.numApps = 3
*.ES_23.numApps = 4
*.ES_24.numApps = 2
*.ES_25.numApps = 3
*.ES_26.numApps = 3
*.ES_27.numApps = 4
*.ES_28.numApps = 5
*.ES_29.numApps = 5
*.ES_30.numApps = 5
*.ES_31.numApps = 5
*.ES_32.numApps = 3
*.ES_33.numApps = 6
*.ES_34.numApps = 6
*.ES_35.numApps = 4
*.ES_36.numApps = 6
*.ES_37.numApps = 2
*.ES_38.numApps = 4
*.ES_39.numApps = 2
*.ES_40.numApps = 4
*.ES_41.numApps = 4
*.ES_42.numApps = 4
*.ES_43.numApps = 5
*.ES_44.numApps = 3
*.ES_45.numApps = 3
*.ES_46.numApps = 5
*.ES_47.numApps = 3
*.ES_48.numApps = 5
*.ES_49.numApps = 3
*.ES_50.numApps = 5
*.ES_51.numApps = 6
*.ES_52.numApps = 5
*.ES_53.numApps = 4
*.ES_54.numApps = 2
*.ES_55.numApps = 3
*.ES_56.numApps = 5
*.ES_57.numApps = 4
*.ES_58.numApps = 5
*.ES_59.numApps = 2
*.ES_60.numApps = 3
*.ES_61.numApps = 4
*.ES_62.numApps = 3
*.ES_63.numApps = 2
*.ES_64.numApps = 5
*.ES_65.numApps = 5
*.ES_66.numApps = 2
*.ES_67.numApps = 3
*.ES_68.numApps = 2
*.ES_69.numApps = 5
*.ES_70.numApps = 5
*.ES_71.numApps = 5
*.ES_72.numApps = 4
*.ES_73.numApps = 2
*.ES_74.numApps = 4
*.ES_75.numApps = 6
*.ES_76.numApps = 2
*.ES_77.numApps = 2
*.ES_78.numApps = 5
*.ES_79.numApps = 4
*.ES_80.numApps = 6
*.ES_81.numApps = 3
*.ES_82.numApps = 4
*.ES_83.numApps = 3
*.ES_84.numApps = 2
*.ES_85.numApps = 3
*.ES_86.numApps = 3
*.ES_87.numApps = 5
*.ES_88.numApps = 2
*.ES_89.numApps = 6
*.ES_90.numApps = 2
*.ES_91.numApps = 4
*.ES_92.numApps = 4
*.ES_93.numApps = 3
*.ES_94.numApps = 3
*.ES_95.numApps = 5
*.ES_96.numApps = 4
*.ES_97.numApps = 2
*.ES_98.numApps = 6
*.ES_99.numApps = 5
*.ES_100.numApps = 3
*.ES_101.numApps = 4
*.ES_102.numApps = 4
*.ES_103.numApps = 8
*.ES_104.numApps = 3
*.ES_105.numApps = 3
*.ES_106.numApps = 4
*.ES_107.numApps = 3
*.ES_108.numApps = 4
*.ES_109.numApps = 2
*.ES_110.numApps = 3
*.ES_111.numApps = 3
*.ES_112.numApps = 2
*.ES_113.numApps = 3
*.ES_114.numApps = 5
*.ES_115.numApps = 4
*.ES_116.numApps = 5
*.ES_117.numApps = 4
*.ES_118.numApps = 8
*.ES_119.numApps = 2
*.ES_120.numApps = 2
*.ES_121.numApps = 3
*.ES_122.numApps = 5
*.ES_123.numApps = 3
*.ES_124.numApps = 2
*.ES_125.numApps = 6
*.ES_126.numApps = 2
*.ES_127.numApps = 6
*.ES_128.numApps = 4
*.ES_129.numApps = 4
*.ES_130.numApps = 3
*.ES_131.numApps = 4
*.ES_132.numApps = 2
*.ES_133.numApps = 4
*.ES_134.numApps = 2
*.ES_135.numApps = 2
*.ES_136.numApps = 4
*.ES_137.numApps = 2
*.ES_138.numApps = 4
*.ES_139.numApps = 3
*.ES_140.numApps = 4
*.ES_141.numApps = 5
*.ES_142.numApps = 3
*.ES_143.numApps = 3
*.ES_144.numApps = 4
*.ES_145.numApps = 7
*.ES_146.numApps = 4
*.ES_147.numApps = 2
*.ES_148.numApps = 4
*.ES_149.numApps = 3
*.ES_150.numApps = 4
*.ES_151.numApps = 7
*.ES_152.numApps = 4
*.ES_153.numApps = 3
*.ES_154.numApps = 3
*.ES_155.numApps = 4
*.ES_156.numApps = 4
*.ES_157.numApps = 3
*.ES_158.numApps = 3
*.ES_159.numApps = 4
*.ES_160.numApps = 4
*.ES_161.numApps = 4
*.ES_162.numApps = 5
*.ES_163.numApps = 3
*.ES_164.numApps = 3
*.ES_165.numApps = 5
*.ES_166.numApps = 5
*.ES_167.numApps = 8
*.ES_168.numApps = 5
*.ES_169.numApps = 6
*.ES_170.numApps = 3
*.ES_171.numApps = 8
*.ES_172.numApps = 3
*.ES_173.numApps = 6
*.ES_174.numApps = 2
*.ES_175.numApps = 5
*.ES_176.numApps = 2
*.ES_177.numApps = 9
*.ES_178.numApps = 3
*.ES_179.numApps = 4
*.ES_180.numApps = 3
*.ES_181.numApps = 3
*.ES_182.numApps = 5
*.ES_183.numApps = 5
*.ES_184.numApps = 2
*.ES_185.numApps = 4
*.ES_186.numApps = 4
*.ES_187.numApps = 6
*.ES_188.numApps = 2
*.ES_189.numApps = 2
*.ES_190.numApps = 3
*.ES_191.numApps = 2
*.ES_192.numApps = 2
*.ES_193.numApps = 4
*.ES_194.numApps = 7
*.ES_195.numApps = 3
*.ES_196.numApps = 3
*.ES_197.numApps = 3
*.ES_198.numApps = 2
*.ES_199.numApps = 2
*.ES_200.numApps = 6
*.ES_201.numApps = 3
*.ES_202.numApps = 4
*.ES_203.numApps = 2
*.ES_204.numApps = 3
*.ES_205.numApps = 5
*.ES_206.numApps = 4
*.ES_207.numApps = 4
*.ES_208.numApps = 2
*.ES_209.numApps = 4
*.ES_210.numApps = 6
*.ES_211.numApps = 3
*.ES_212.numApps = 4
*.ES_213.numApps = 3
*.ES_214.numApps = 8
*.ES_215.numApps = 4
*.ES_216.numApps = 4
*.ES_217.numApps = 3
*.ES_218.numApps = 6
*.ES_219.numApps = 4
*.ES_220.numApps = 4
*.ES_221.numApps = 4
*.ES_222.numApps = 7
*.ES_223.numApps = 4
*.ES_224.numApps = 5
*.ES_225.numApps = 9
*.ES_226.numApps = 4
*.ES_227.numApps = 5
*.ES_228.numApps = 6
*.ES_229.numApps = 4
*.ES_230.numApps = 4
*.ES_231.numApps = 3
*.ES_232.numApps = 5
*.ES_233.numApps = 4
*.ES_234.numApps = 8
*.ES_235.numApps = 2
*.ES_236.numApps = 2
*.ES_237.numApps = 4
*.ES_238.numApps = 4
*.ES_239.numApps = 3
*.ES_240.numApps = 3
*.ES_241.numApps = 4
*.ES_242.numApps = 5
*.ES_243.numApps = 4
*.ES_244.numApps = 2
*.ES_245.numApps = 3
*.ES_246.numApps = 3
*.ES_247.numApps = 2
*.ES_248.numApps = 4
*.ES_249.numApps = 3
*.ES_250.numApps = 2
*.ES_251.numApps = 3
*.ES_252.numApps = 6
*.ES_253.numApps = 4
*.ES_254.numApps = 3
*.ES_255.numApps = 3
*.ES_256.numApps = 9
*.ES_257.numApps = 6
*.ES_258.numApps = 4
*.ES_259.numApps = 2
*.ES_260.numApps = 5
*.ES_261.numApps = 3
*.ES_262.numApps = 3
*.ES_263.numApps = 2
*.ES_264.numApps = 5
*.ES_265.numApps = 3
*.ES_266.numApps = 3
*.ES_267.numApps = 8
*.ES_268.numApps = 6
*.ES_269.numApps = 3
*.ES_270.numApps = 3
*.ES_271.numApps = 3
*.ES_272.numApps = 7
*.ES_273.numApps = 8
*.ES_274.numApps = 3
*.ES_275.numApps = 4
*.ES_276.numApps = 2
*.ES_277.numApps = 7
*.ES_278.numApps = 5
*.ES_279.numApps = 4
*.ES_280.numApps = 3
*.ES_281.numApps = 7
*.ES_282.numApps = 5
*.ES_283.numApps = 3
*.ES_284.numApps = 5
*.ES_285.numApps = 3
*.ES_286.numApps = 4
*.ES_287.numApps = 4
*.ES_288.numApps = 3
*.ES_289.numApps = 4
*.ES_290.numApps = 3
*.ES_291.numApps = 4
*.ES_292.numApps = 6
*.ES_293.numApps = 5
*.ES_294.numApps = 4
*.ES_295.numApps = 3
*.ES_296.numApps = 4
*.ES_297.numApps = 4
*.ES_298.numApps = 3
*.ES_299.numApps = 4
*.ES_300.numApps = 6
*.ES_301.numApps = 4
*.ES_302.numApps = 5
*.ES_303.numApps = 4
*.ES_304.numApps = 3
*.ES_305.numApps = 5
*.ES_306.numApps = 3
*.ES_307.numApps = 3
*.ES_308.numApps = 5
*.ES_309.numApps = 5
*.ES_310.numApps = 2
*.ES_311.numApps = 3
*.ES_312.numApps = 2
*.ES_313.numApps = 5
*.ES_314.numApps = 6
*.ES_315.numApps = 5
*.ES_316.numApps = 2
*.ES_317.numApps = 5
*.ES_318.numApps = 4
*.ES_319.numApps = 3
*.ES_320.numApps = 4
*.ES_321.numApps = 3
*.ES_322.numApps = 3
*.ES_323.numApps = 4
*.ES_324.numApps = 3
*.ES_325.numApps = 4
*.ES_326.numApps = 3
*.ES_327.numApps = 4
*.ES_328.numApps = 4
*.ES_329.numApps = 4
*.ES_330.numApps = 3
*.ES_331.numApps = 3
*.ES_332.numApps = 3
*.ES_333.numApps = 3
*.ES_334.numApps = 5
*.ES_335.numApps = 5
*.ES_336.numApps = 6
*.ES_337.numApps = 5
*.ES_338.numApps = 5
*.ES_339.numApps = 5
*.ES_340.numApps = 2
*.ES_341.numApps = 4
*.ES_342.numApps = 3
*.ES_343.numApps = 6
*.ES_344.numApps = 4
*.ES_345.numApps = 2
*.ES_346.numApps = 4
*.ES_347.numApps = 6
*.ES_348.numApps = 4
*.ES_349.numApps = 2
*.ES_350.numApps = 7
*.ES_351.numApps = 3
*.ES_352.numApps = 3
*.ES_353.numApps = 4
*.ES_354.numApps = 6
*.ES_355.numApps = 4
*.ES_356.numApps = 4
*.ES_357.numApps = 2
*.ES_358.numApps = 3
*.ES_359.numApps = 5
*.ES_360.numApps = 4
*.ES_361.numApps = 5
*.ES_362.numApps = 3
*.ES_363.numApps = 4
*.ES_364.numApps = 5
*.ES_365.numApps = 2
*.ES_366.numApps = 7
*.ES_367.numApps = 5
*.ES_368.numApps = 6
*.ES_369.numApps = 7
*.ES_370.numApps = 2
*.ES_371.numApps = 5
*.ES_372.numApps = 3
*.ES_373.numApps = 2
*.ES_374.numApps = 2
*.ES_375.numApps = 3
*.ES_376.numApps = 5
*.ES_377.numApps = 4
*.ES_378.numApps = 4
*.ES_379.numApps = 5
*.ES_380.numApps = 6
*.ES_381.numApps = 2
*.ES_382.numApps = 4
*.ES_383.numApps = 4
*.ES_384.numApps = 2
*.ES_385.numApps = 2
*.ES_386.numApps = 4
*.ES_387.numApps = 3
*.ES_388.numApps = 3
*.ES_389.numApps = 2
*.ES_390.numApps = 2
*.ES_391.numApps = 2
*.ES_392.numApps = 3
*.ES_393.numApps = 4
*.ES_394.numApps = 5
*.ES_395.numApps = 5
*.ES_396.numApps = 3
*.ES_397.numApps = 3
*.ES_398.numApps = 3
*.ES_399.numApps = 5
*.ES_400.numApps = 2
*.ES_401.numApps = 5
*.ES_402.numApps = 2
*.ES_403.numApps = 3
*.ES_404.numApps = 4
*.ES_405.numApps = 3
*.ES_406.numApps = 4
*.ES_407.numApps = 3
*.ES_408.numApps = 3
*.ES_409.numApps = 5
*.ES_410.numApps = 3
*.ES_411.numApps = 5
*.ES_412.numApps = 4
*.ES_413.numApps = 4
*.ES_414.numApps = 6
*.ES_415.numApps = 4
*.ES_416.numApps = 5
*.ES_417.numApps = 2
*.ES_418.numApps = 7
*.ES_419.numApps = 6
*.ES_420.numApps = 6
*.ES_421.numApps = 10
*.ES_422.numApps = 2
*.ES_423.numApps = 8
*.ES_424.numApps = 2
*.ES_425.numApps = 4
*.ES_426.numApps = 5
*.ES_427.numApps = 3
*.ES_428.numApps = 5
*.ES_429.numApps = 5
*.ES_430.numApps = 3
*.ES_431.numApps = 2
*.ES_432.numApps = 3
*.ES_433.numApps = 4
*.ES_434.numApps = 4
*.ES_435.numApps = 4
*.ES_436.numApps = 4
*.ES_437.numApps = 3
*.ES_438.numApps = 3
*.ES_439.numApps = 2
*.ES_440.numApps = 6
*.ES_441.numApps = 7
*.ES_442.numApps = 4
*.ES_443.numApps = 3
*.ES_444.numApps = 4
*.ES_445.numApps = 4
*.ES_446.numApps = 3
*.ES_447.numApps = 4
*.ES_448.numApps = 4
*.ES_449.numApps = 3
*.ES_450.numApps = 2
*.ES_451.numApps = 4
*.ES_452.numApps = 3
*.ES_453.numApps = 8
*.ES_454.numApps = 4
*.ES_455.numApps = 3
*.ES_456.numApps = 4
*.ES_457.numApps = 3
*.ES_458.numApps = 3
*.ES_459.numApps = 2
*.ES_460.numApps = 3
*.ES_461.numApps = 2
*.ES_462.numApps = 5
*.ES_463.numApps = 3
*.ES_464.numApps = 7
*.ES_465.numApps = 3
*.ES_466.numApps = 4
*.ES_467.numApps = 2
*.ES_468.numApps = 3
*.ES_469.numApps = 3
*.ES_470.numApps = 4
*.ES_471.numApps = 3
*.ES_472.numApps = 5
*.ES_473.numApps = 3
*.ES_474.numApps = 5
*.ES_475.numApps = 8
*.ES_476.numApps = 3
*.ES_477.numApps = 5
*.ES_478.numApps = 4
*.ES_479.numApps = 4
*.ES_480.numApps = 3
*.ES_481.numApps = 2
*.ES_482.numApps = 3
*.ES_483.numApps = 2
*.ES_484.numApps = 2
*.ES_485.numApps = 2
*.ES_486.numApps = 3
*.ES_487.numApps = 5
*.ES_488.numApps = 9
*.ES_489.numApps = 3
*.ES_490.numApps = 6
*.ES_491.numApps = 5
*.ES_492.numApps = 7
*.ES_493.numApps = 6
*.ES_494.numApps = 6
*.ES_495.numApps = 4
*.ES_496.numApps = 3
*.ES_497.numApps = 3
*.ES_498.numApps = 5
*.ES_499.numApps = 7
*.ES_500.numApps = 2
*.ES_501.numApps = 5
*.ES_502.numApps = 5
*.ES_503.numApps = 3
*.ES_504.numApps = 5
*.ES_505.numApps = 2
*.ES_506.numApps = 4
*.ES_507.numApps = 4
*.ES_508.numApps = 7
*.ES_509.numApps = 4
*.ES_510.numApps = 6
*.ES_511.numApps = 4
*.ES_512.numApps = 5
*.ES_513.numApps = 4
*.ES_514.numApps = 4
*.ES_515.numApps = 4
*.ES_516.numApps = 3
*.ES_517.numApps = 4
*.ES_518.numApps = 4
*.ES_519.numApps = 5
*.ES_520.numApps = 5
*.ES_521.numApps = 3
*.ES_522.numApps = 3
*.ES_523.numApps = 4
*.ES_524.numApps = 3
*.ES_525.numApps = 7
*.ES_526.numApps = 2
*.ES_527.numApps = 4
*.ES_528.numApps = 5
*.ES_529.numApps = 4
*.ES_530.numApps = 3
*.ES_531.numApps = 3
*.ES_532.numApps = 2
*.ES_533.numApps = 5
*.ES_534.numApps = 4
*.ES_535.numApps = 4
*.ES_536.numApps = 4
*.ES_537.numApps = 2
*.ES_538.numApps = 4
*.ES_539.numApps = 2
*.ES_540.numApps = 4
*.ES_541.numApps = 2
*.ES_542.numApps = 3
*.ES_543.numApps = 3
*.ES_544.numApps = 4
*.ES_545.numApps = 3
*.ES_546.numApps = 5
*.ES_547.numApps = 4
*.ES_548.numApps = 8
*.ES_549.numApps = 3
*.ES_550.numApps = 4
*.ES_551.numApps = 5
*.ES_552.numApps = 3
*.ES_553.numApps = 3
*.ES_554.numApps = 5
*.ES_555.numApps = 2
*.ES_556.numApps = 6
*.ES_557.numApps = 5
*.ES_558.numApps = 4
*.ES_559.numApps = 3
*.ES_560.numApps = 4
*.ES_561.numApps = 5
*.ES_562.numApps = 3
*.ES_563.numApps = 2
*.ES_564.numApps = 3
*.ES_565.numApps = 5
*.ES_566.numApps = 4
*.ES_567.numApps = 2
*.ES_568.numApps = 5
*.ES_569.numApps = 4
*.ES_570.numApps = 2
*.ES_571.numApps = 2
*.ES_572.numApps = 4
*.ES_573.numApps = 6
*.ES_574.numApps = 5
*.ES_575.numApps = 7
*.ES_576.numApps = 6
*.ES_577.numApps = 3
*.ES_578.numApps = 2
*.ES_579.numApps = 5
*.ES_580.numApps = 4
*.ES_581.numApps = 2
*.ES_582.numApps = 5
*.ES_583.numApps = 4
*.ES_584.numApps = 3
*.ES_585.numApps = 4
*.ES_586.numApps = 4
*.ES_587.numApps = 3
*.ES_588.numApps = 3
*.ES_589.numApps = 3
*.ES_590.numApps = 7
*.ES_591.numApps = 5
*.ES_592.numApps = 2
*.ES_593.numApps = 5
*.ES_594.numApps = 2
*.ES_595.numApps = 3
*.ES_596.numApps = 4
*.ES_597.numApps = 3
*.ES_598.numApps = 4
*.ES_599.numApps = 4
*.ES_600.numApps = 3
*.ES_601.numApps = 2
*.ES_602.numApps = 3
*.ES_603.numApps = 8
*.ES_604.numApps = 2
*.ES_605.numApps = 3
*.ES_606.numApps = 5
*.ES_607.numApps = 4
*.ES_608.numApps = 5
*.ES_609.numApps = 4
*.ES_610.numApps = 5
*.ES_611.numApps = 3
*.ES_612.numApps = 2
*.ES_613.numApps = 2
*.ES_614.numApps = 9
*.ES_615.numApps = 5
*.ES_616.numApps = 5
*.ES_617.numApps = 3
*.ES_618.numApps = 4
*.ES_619.numApps = 4
*.ES_620.numApps = 5
*.ES_621.numApps = 2
*.ES_622.numApps = 4
*.ES_623.numApps = 3
*.ES_624.numApps = 4
*.ES_625.numApps = 6
*.ES_626.numApps = 2
*.ES_627.numApps = 4
*.ES_628.numApps = 3
*.ES_629.numApps = 3
*.ES_630.numApps = 4
*.ES_631.numApps = 4
*.ES_632.numApps = 2
*.ES_633.numApps = 5
*.ES_634.numApps = 4
*.ES_635.numApps = 6
*.ES_636.numApps = 6
*.ES_637.numApps = 2
*.ES_638.numApps = 6
*.ES_639.numApps = 3
*.ES_640.numApps = 2
*.ES_641.numApps = 5
*.ES_642.numApps = 4
*.ES_643.numApps = 5
*.ES_644.numApps = 3
*.ES_645.numApps = 4
*.ES_646.numApps = 4
*.ES_647.numApps = 3
*.ES_648.numApps = 4
*.ES_649.numApps = 3
*.ES_650.numApps = 8
*.ES_651.numApps = 5
*.ES_652.numApps = 3
*.ES_653.numApps = 5
*.ES_654.numApps = 5
*.ES_655.numApps = 2
*.ES_656.numApps = 2
*.ES_657.numApps = 4
*.ES_658.numApps = 5
*.ES_659.numApps = 2
*.ES_660.numApps = 4
*.ES_661.numApps = 4
*.ES_662.numApps = 4
*.ES_663.numApps = 4
*.ES_664.numApps = 5
*.ES_665.numApps = 3
*.ES_666.numApps = 4
*.ES_667.numApps = 2
*.ES_668.numApps = 4
*.ES_669.numApps = 5
*.ES_670.numApps = 3
*.ES_671.numApps = 5
*.ES_672.numApps = 2
*.ES_673.numApps = 4
*.ES_674.numApps = 4
*.ES_675.numApps = 2
*.ES_676.numApps = 3
*.ES_677.numApps = 4
*.ES_678.numApps = 3
*.ES_679.numApps = 2
*.ES_680.numApps = 4
*.ES_681.numApps = 4
*.ES_682.numApps = 6
*.ES_683.numApps = 5
*.ES_684.numApps = 7
*.ES_685.numApps = 2
*.ES_686.numApps = 3
*.ES_687.numApps = 5
*.ES_688.numApps = 3
*.ES_689.numApps = 3
*.ES_690.numApps = 6
*.ES_691.numApps = 5
*.ES_692.numApps = 4
*.ES_693.numApps = 3
*.ES_694.numApps = 4
*.ES_695.numApps = 2
*.ES_696.numApps = 4
*.ES_697.numApps = 3
*.ES_698.numApps = 3
*.ES_699.numApps = 7
*.ES_700.numApps = 3
*.ES_701.numApps = 3
*.ES_702.numApps = 6
*.ES_703.numApps = 2
*.ES_704.numApps = 4
*.ES_705.numApps = 4
*.ES_706.numApps = 2
*.ES_707.numApps = 2
*.ES_708.numApps = 4
*.ES_709.numApps = 3
*.ES_710.numApps = 5
*.ES_711.numApps = 5
*.ES_712.numApps = 6
*.ES_713.numApps = 3
*.ES_714.numApps = 3
*.ES_715.numApps = 6
*.ES_716.numApps = 3
*.ES_717.numApps = 5
*.ES_718.numApps = 5
*.ES_719.numApps = 4
*.ES_720.numApps = 2
*.ES_721.numApps = 4
*.ES_722.numApps = 4
*.ES_723.numApps = 8
*.ES_724.numApps = 4
*.ES_725.numApps = 3
*.ES_726.numApps = 3
*.ES_727.numApps = 6
*.ES_728.numApps = 5
*.ES_729.numApps = 2
*.ES_730.numApps = 3
*.ES_731.numApps = 5
*.ES_732.numApps = 4
*.ES_733.numApps = 2
*.ES_734.numApps = 4
*.ES_735.numApps = 3
*.ES_736.numApps = 4
*.ES_737.numApps = 4
*.ES_738.numApps = 3
*.ES_739.numApps = 3
*.ES_740.numApps = 3
*.ES_741.numApps = 2
*.ES_742.numApps = 4
*.ES_743.numApps = 4
*.ES_744.numApps = 5
*.ES_745.numApps = 5
*.ES_746.numApps = 2
*.ES_747.numApps = 5
*.ES_748.numApps = 4
*.ES_749.numApps = 6
*.ES_750.numApps = 2
*.ES_751.numApps = 2
*.ES_752.numApps = 4
*.ES_753.numApps = 4
*.ES_754.numApps = 2
*.ES_755.numApps = 4
*.ES_756.numApps = 4
*.ES_757.numApps = 4
*.ES_758.numApps = 4
*.ES_759.numApps = 4
*.ES_760.numApps = 7
*.ES_761.numApps = 5
*.ES_762.numApps = 5
*.ES_763.numApps = 2
*.ES_764.numApps = 2
*.ES_765.numApps = 2
*.ES_766.numApps = 4
*.ES_767.numApps = 4
*.ES_768.numApps = 4
*.ES_769.numApps = 7
*.ES_770.numApps = 7
*.ES_771.numApps = 4
*.ES_772.numApps = 3
*.ES_773.numApps = 4
*.ES_774.numApps = 4
*.ES_775.numApps = 2
*.ES_776.numApps = 5
*.ES_777.numApps = 2
*.ES_778.numApps = 2
*.ES_779.numApps = 6
*.ES_780.numApps = 7
*.ES_781.numApps = 7
*.ES_782.numApps = 3
*.ES_783.numApps = 2
*.ES_784.numApps = 7
*.ES_785.numApps = 4
*.ES_786.numApps = 6
*.ES_787.numApps = 3
*.ES_788.numApps = 5
*.ES_789.numApps = 5
*.ES_790.numApps = 5
*.ES_791.numApps = 7
*.ES_792.numApps = 4
*.ES_793.numApps = 3
*.ES_794.numApps = 3
*.ES_795.numApps = 3
*.ES_796.numApps = 5
*.ES_797.numApps = 6
*.ES_798.numApps = 3
*.ES_799.numApps = 4
*.ES_800.numApps = 3
*.ES_801.numApps = 3
*.ES_802.numApps = 4
*.ES_803.numApps = 6
*.ES_804.numApps = 5
*.ES_805.numApps = 4
*.ES_806.numApps = 3
*.ES_807.numApps = 4
*.ES_808.numApps = 3
*.ES_809.numApps = 5
*.ES_810.numApps = 3
*.ES_811.numApps = 3
*.ES_812.numApps = 3
*.ES_813.numApps = 4
*.ES_814.numApps = 5
*.ES_815.numApps = 4
*.ES_816.numApps = 2
*.ES_817.numApps = 5
*.ES_818.numApps = 5
*.ES_819.numApps = 2
*.ES_820.numApps = 5
*.ES_821.numApps = 3
*.ES_822.numApps = 7
*.ES_823.numApps = 2
*.ES_824.numApps = 5
*.ES_825.numApps = 3
*.ES_826.numApps = 5
*.ES_827.numApps = 6
*.ES_828.numApps = 2
*.ES_829.numApps = 2
*.ES_830.numApps = 2
*.ES_831.numApps = 3
*.ES_832.numApps = 3
*.ES_833.numApps = 6
*.ES_834.numApps = 6
*.ES_835.numApps = 6
*.ES_836.numApps = 4
*.ES_837.numApps = 6
*.ES_838.numApps = 5
*.ES_839.numApps = 4
*.ES_840.numApps = 3
*.ES_841.numApps = 4
*.ES_842.numApps = 2
*.ES_843.numApps = 2
*.ES_844.numApps = 5
*.ES_845.numApps = 3
*.ES_846.numApps = 4
*.ES_847.numApps = 4
*.ES_848.numApps = 5
*.ES_849.numApps = 3
*.ES_850.numApps = 4
*.ES_851.numApps = 2
*.ES_852.numApps = 5
*.ES_853.numApps = 5
*.ES_854.numApps = 4
*.ES_855.numApps = 5
*.ES_856.numApps = 6
*.ES_857.numApps = 4
*.ES_858.numApps = 3
*.ES_859.numApps = 4
*.ES_860.numApps = 5
*.ES_861.numApps = 5
*.ES_862.numApps = 5
*.ES_863.numApps = 3
*.ES_864.numApps = 5
*.ES_865.numApps = 3
*.ES_866.numApps = 4
*.ES_867.numApps = 3
*.ES_868.numApps = 3
*.ES_869.numApps = 5
*.ES_870.numApps = 3
*.ES_871.numApps = 6
*.ES_872.numApps = 3
*.ES_873.numApps = 5
*.ES_874.numApps = 4
*.ES_875.numApps = 7
*.ES_876.numApps = 3
*.ES_877.numApps = 4
*.ES_878.numApps = 2
*.ES_879.numApps = 4
*.ES_880.numApps = 3
*.ES_881.numApps = 5
*.ES_882.numApps = 4
*.ES_883.numApps = 5
*.ES_884.numApps = 2
*.ES_885.numApps = 4
*.ES_886.numApps = 7
*.ES_887.numApps = 2
*.ES_888.numApps = 4
*.ES_889.numApps = 2
*.ES_890.numApps = 2
*.ES_891.numApps = 3
*.ES_892.numApps = 4
*.ES_893.numApps = 3
*.ES_894.numApps = 6
*.ES_895.numApps = 2
*.ES_896.numApps = 6
*.ES_897.numApps = 2
*.ES_898.numApps = 3
*.ES_899.numApps = 5
*.ES_900.numApps = 3
*.ES_901.numApps = 5
*.ES_902.numApps = 4
*.ES_903.numApps = 6
*.ES_904.numApps = 4
*.ES_905.numApps = 9
*.ES_906.numApps = 5
*.ES_907.numApps = 3
*.ES_908.numApps = 4
*.ES_909.numApps = 3
*.ES_910.numApps = 6
*.ES_911.numApps = 4
*.ES_912.numApps = 4
*.ES_913.numApps = 4
*.ES_914.numApps = 7
*.ES_915.numApps = 3
*.ES_916.numApps = 3
*.ES_917.numApps = 5
*.ES_918.numApps = 3
*.ES_919.numApps = 5
*.ES_920.numApps = 4
*.ES_921.numApps = 5
*.ES_922.numApps = 4
*.ES_923.numApps = 6
*.ES_924.numApps = 6
*.ES_925.numApps = 3
*.ES_926.numApps = 5
*.ES_927.numApps = 4
*.ES_928.numApps = 4
*.ES_929.numApps = 5
*.ES_930.numApps = 6
*.ES_931.numApps = 4
*.ES_932.numApps = 6
*.ES_933.numApps = 3
*.ES_934.numApps = 8
*.ES_935.numApps = 5
*.ES_936.numApps = 3
*.ES_937.numApps = 4
*.ES_938.numApps = 5
*.ES_939.numApps = 5
*.ES_940.numApps = 5
*.ES_941.numApps = 3
*.ES_942.numApps = 6
*.ES_943.numApps = 5
*.ES_944.numApps = 5
*.ES_945.numApps = 2
*.ES_946.numApps = 2
*.ES_947.numApps = 6
*.ES_948.numApps = 5
*.ES_949.numApps = 7
*.ES_950.numApps = 4
*.ES_951.numApps = 6
*.ES_952.numApps = 4
*.ES_953.numApps = 3
*.ES_954.numApps = 4
*.ES_955.numApps = 2
*.ES_956.numApps = 2
*.ES_957.numApps = 6
*.ES_958.numApps = 3
*.ES_959.numApps = 2
*.ES_960.numApps = 2
*.ES_961.numApps = 5
*.ES_962.numApps = 3
*.ES_963.numApps = 6
*.ES_964.numApps = 4
*.ES_965.numApps = 6
*.ES_966.numApps = 4
*.ES_967.numApps = 8
*.ES_968.numApps = 4
*.ES_969.numApps = 4
*.ES_970.numApps = 4
*.ES_971.numApps = 4
*.ES_972.numApps = 4
*.ES_973.numApps = 5
*.ES_974.numApps = 5
*.ES_975.numApps = 4
*.ES_976.numApps = 2
*.ES_977.numApps = 5
*.ES_978.numApps = 3
*.ES_979.numApps = 4
*.ES_980.numApps = 6
*.ES_981.numApps = 6
*.ES_982.numApps = 4
*.ES_983.numApps = 5
*.ES_984.numApps = 3
*.ES_985.numApps = 3
*.ES_986.numApps = 5
*.ES_987.numApps = 2
*.ES_988.numApps = 6
*.ES_989.numApps = 4
*.ES_990.numApps = 2
*.ES_991.numApps = 3
*.ES_992.numApps = 4
*.ES_993.numApps = 6
*.ES_994.numApps = 2
*.ES_995.numApps = 4
*.ES_996.numApps = 5
*.ES_997.numApps = 2
*.ES_998.numApps = 3
*.ES_999.numApps = 4
*.ES_1000.numApps = 5
*.ES_1001.numApps = 4
*.ES_1002.numApps = 5
*.ES_1003.numApps = 5
*.ES_1004.numApps = 4
*.ES_1005.numApps = 6
*.ES_1006.numApps = 4
*.ES_1007.numApps = 3
*.ES_1008.numApps = 4
*.ES_1009.numApps = 5
*.ES_1010.numApps = 2
*.ES_1011.numApps = 3
*.ES_1012.numApps = 6
*.ES_1013.numApps = 4
*.ES_1014.numApps = 3
*.ES_1015.numApps = 5
*.ES_1016.numApps = 8
*.ES_1017.numApps = 3
*.ES_1018.numApps = 7
*.ES_1019.numApps = 4
*.ES_1020.numApps = 4
*.ES_1021.numApps = 4
*.ES_1022.numApps = 5
*.ES_1023.numApps = 4
*.ES_1024.numApps = 4
*.ES_1.app[0..1].typename = "UdpSourceApp"
*.ES_1.app[0].display-name = "ats-p0"
*.ES_1.app[0].io.destAddress = "ES_206"
*.ES_1.app[0].io.destPort = 1
*.ES_1.app[0].source.productionInterval = 500us
*.ES_1.app[0].source.initialProductionOffset = 500us
*.ES_1.app[0].source.packetLength = 516B
*.ES_1.app[1].display-name = "ats-p5"
*.ES_1.app[1].io.destAddress = "ES_906"
*.ES_1.app[1].io.destPort = 2
*.ES_1.app[1].source.productionInterval = 500us
*.ES_1.app[1].source.initialProductionOffset = 500us
*.ES_1.app[1].source.packetLength = 532B
*.ES_2.app[0..1].typename = "UdpSourceApp"
*.ES_2.app[0].display-name = "ats-p5"
*.ES_2.app[0].io.destAddress = "ES_453"
*.ES_2.app[0].io.destPort = 3
*.ES_2.app[0].source.productionInterval = 1000us
*.ES_2.app[0].source.initialProductionOffset = 1000us
*.ES_2.app[0].source.packetLength = 929B
*.ES_2.app[1].display-name = "ats-p4"
*.ES_2.app[1].io.destAddress = "ES_682"
*.ES_2.app[1].io.destPort = 4
*.ES_2.app[1].source.productionInterval = 2000us
*.ES_2.app[1].source.initialProductionOffset = 2000us
*.ES_2.app[1].source.packetLength = 970B
*.ES_2.app[2].typename = "UdpSinkApp"
*.ES_2.app[2].io.localPort = 351
*.ES_3.app[0..1].typename = "UdpSourceApp"
*.ES_3.app[0].display-name = "ats-p2"
*.ES_3.app[0].io.destAddress = "ES_573"
*.ES_3.app[0].io.destPort = 5
*.ES_3.app[0].source.productionInterval = 1000us
*.ES_3.app[0].source.initialProductionOffset = 1000us
*.ES_3.app[0].source.packetLength = 866B
*.ES_3.app[1].display-name = "ats-p2"
*.ES_3.app[1].io.destAddress = "ES_1022"
*.ES_3.app[1].io.destPort = 6
*.ES_3.app[1].source.productionInterval = 1000us
*.ES_3.app[1].source.initialProductionOffset = 1000us
*.ES_3.app[1].source.packetLength = 502B
*.ES_3.app[2..4].typename = "UdpSinkApp"
*.ES_3.app[2].io.localPort = 67
*.ES_3.app[3].io.localPort = 767
*.ES_3.app[4].io.localPort = 1743
*.ES_4.app[0..1].typename = "UdpSourceApp"
*.ES_4.app[0].display-name = "ats-p4"
*.ES_4.app[0].io.destAddress = "ES_464"
*.ES_4.app[0].io.destPort = 7
*.ES_4.app[0].source.productionInterval = 1000us
*.ES_4.app[0].source.initialProductionOffset = 1000us
*.ES_4.app[0].source.packetLength = 764B
*.ES_4.app[1].display-name = "ats-p5"
*.ES_4.app[1].io.destAddress = "ES_187"
*.ES_4.app[1].io.destPort = 8
*.ES_4.app[1].source.productionInterval = 1000us
*.ES_4.app[1].source.initialProductionOffset = 1000us
*.ES_4.app[1].source.packetLength = 843B
*.ES_4.app[2].typename = "UdpSinkApp"
*.ES_4.app[2].io.localPort = 1960
*.ES_5.app[0..1].typename = "UdpSourceApp"
*.ES_5.app[0].display-name = "ats-p6"
*.ES_5.app[0].io.destAddress = "ES_805"
*.ES_5.app[0].io.destPort = 9
*.ES_5.app[0].source.productionInterval = 500us
*.ES_5.app[0].source.initialProductionOffset = 500us
*.ES_5.app[0].source.packetLength = 761B
*.ES_5.app[1].display-name = "ats-p5"
*.ES_5.app[1].io.destAddress = "ES_791"
*.ES_5.app[1].io.destPort = 10
*.ES_5.app[1].source.productionInterval = 500us
*.ES_5.app[1].source.initialProductionOffset = 500us
*.ES_5.app[1].source.packetLength = 740B
*.ES_5.app[2..5].typename = "UdpSinkApp"
*.ES_5.app[2].io.localPort = 533
*.ES_5.app[3].io.localPort = 707
*.ES_5.app[4].io.localPort = 1487
*.ES_5.app[5].io.localPort = 1504
*.ES_6.app[0..1].typename = "UdpSourceApp"
*.ES_6.app[0].display-name = "ats-p3"
*.ES_6.app[0].io.destAddress = "ES_682"
*.ES_6.app[0].io.destPort = 11
*.ES_6.app[0].source.productionInterval = 500us
*.ES_6.app[0].source.initialProductionOffset = 500us
*.ES_6.app[0].source.packetLength = 732B
*.ES_6.app[1].display-name = "ats-p3"
*.ES_6.app[1].io.destAddress = "ES_588"
*.ES_6.app[1].io.destPort = 12
*.ES_6.app[1].source.productionInterval = 2000us
*.ES_6.app[1].source.initialProductionOffset = 2000us
*.ES_6.app[1].source.packetLength = 559B
*.ES_6.app[2..3].typename = "UdpSinkApp"
*.ES_6.app[2].io.localPort = 656
*.ES_6.app[3].io.localPort = 765
*.ES_7.app[0..1].typename = "UdpSourceApp"
*.ES_7.app[0].display-name = "ats-p7"
*.ES_7.app[0].io.destAddress = "ES_145"
*.ES_7.app[0].io.destPort = 13
*.ES_7.app[0].source.productionInterval = 500us
*.ES_7.app[0].source.initialProductionOffset = 500us
*.ES_7.app[0].source.packetLength = 729B
*.ES_7.app[1].display-name = "ats-p4"
*.ES_7.app[1].io.destAddress = "ES_118"
*.ES_7.app[1].io.destPort = 14
*.ES_7.app[1].source.productionInterval = 1000us
*.ES_7.app[1].source.initialProductionOffset = 1000us
*.ES_7.app[1].source.packetLength = 508B
*.ES_7.app[2..3].typename = "UdpSinkApp"
*.ES_7.app[2].io.localPort = 322
*.ES_7.app[3].io.localPort = 781
*.ES_8.app[0..1].typename = "UdpSourceApp"
*.ES_8.app[0].display-name = "ats-p1"
*.ES_8.app[0].io.destAddress = "ES_678"
*.ES_8.app[0].io.destPort = 15
*.ES_8.app[0].source.productionInterval = 2000us
*.ES_8.app[0].source.initialProductionOffset = 2000us
*.ES_8.app[0].source.packetLength = 946B
*.ES_8.app[1].display-name = "ats-p0"
*.ES_8.app[1].io.destAddress = "ES_225"
*.ES_8.app[1].io.destPort = 16
*.ES_8.app[1].source.productionInterval = 2000us
*.ES_8.app[1].source.initialProductionOffset = 2000us
*.ES_8.app[1].source.packetLength = 882B
*.ES_8.app[2].typename = "UdpSinkApp"
*.ES_8.app[2].io.localPort = 260
*.ES_9.app[0..1].typename = "UdpSourceApp"
*.ES_9.app[0].display-name = "ats-p1"
*.ES_9.app[0].io.destAddress = "ES_943"
*.ES_9.app[0].io.destPort = 17
*.ES_9.app[0].source.productionInterval = 2000us
*.ES_9.app[0].source.initialProductionOffset = 2000us
*.ES_9.app[0].source.packetLength = 671B
*.ES_9.app[1].display-name = "ats-p0"
*.ES_9.app[1].io.destAddress = "ES_891"
*.ES_9.app[1].io.destPort = 18
*.ES_9.app[1].source.productionInterval = 500us
*.ES_9.app[1].source.initialProductionOffset = 500us
*.ES_9.app[1].source.packetLength = 723B
*.ES_9.app[2..5].typename = "UdpSinkApp"
*.ES_9.app[2].io.localPort = 80
*.ES_9.app[3].io.localPort = 442
*.ES_9.app[4].io.localPort = 925
*.ES_9.app[5].io.localPort = 1246
*.ES_10.app[0..1].typename = "UdpSourceApp"
*.ES_10.app[0].display-name = "ats-p7"
*.ES_10.app[0].io.destAddress = "ES_222"
*.ES_10.app[0].io.destPort = 19
*.ES_10.app[0].source.productionInterval = 2000us
*.ES_10.app[0].source.initialProductionOffset = 2000us
*.ES_10.app[0].source.packetLength = 527B
*.ES_10.app[1].display-name = "ats-p7"
*.ES_10.app[1].io.destAddress = "ES_979"
*.ES_10.app[1].io.destPort = 20
*.ES_10.app[1].source.productionInterval = 1000us
*.ES_10.app[1].source.initialProductionOffset = 1000us
*.ES_10.app[1].source.packetLength = 893B
*.ES_10.app[2].typename = "UdpSinkApp"
*.ES_10.app[2].io.localPort = 1467
*.ES_11.app[0..1].typename = "UdpSourceApp"
*.ES_11.app[0].display-name = "ats-p4"
*.ES_11.app[0].io.destAddress = "ES_222"
*.ES_11.app[0].io.destPort = 21
*.ES_11.app[0].source.productionInterval = 500us
*.ES_11.app[0].source.initialProductionOffset = 500us
*.ES_11.app[0].source.packetLength = 727B
*.ES_11.app[1].display-name = "ats-p4"
*.ES_11.app[1].io.destAddress = "ES_472"
*.ES_11.app[1].io.destPort = 22
*.ES_11.app[1].source.productionInterval = 500us
*.ES_11.app[1].source.initialProductionOffset = 500us
*.ES_11.app[1].source.packetLength = 964B
*.ES_11.app[2..5].typename = "UdpSinkApp"
*.ES_11.app[2].io.localPort = 292
*.ES_11.app[3].io.localPort = 1437
*.ES_11.app[4].io.localPort = 1815
*.ES_11.app[5].io.localPort = 1834
*.ES_12.app[0..1].typename = "UdpSourceApp"
*.ES_12.app[0].display-name = "ats-p5"
*.ES_12.app[0].io.destAddress = "ES_780"
*.ES_12.app[0].io.destPort = 23
*.ES_12.app[0].source.productionInterval = 500us
*.ES_12.app[0].source.initialProductionOffset = 500us
*.ES_12.app[0].source.packetLength = 803B
*.ES_12.app[1].display-name = "ats-p2"
*.ES_12.app[1].io.destAddress = "ES_128"
*.ES_12.app[1].io.destPort = 24
*.ES_12.app[1].source.productionInterval = 500us
*.ES_12.app[1].source.initialProductionOffset = 500us
*.ES_12.app[1].source.packetLength = 575B
*.ES_12.app[2..4].typename = "UdpSinkApp"
*.ES_12.app[2].io.localPort = 562
*.ES_12.app[3].io.localPort = 1396
*.ES_12.app[4].io.localPort = 1919
*.ES_13.app[0..1].typename = "UdpSourceApp"