[General]
network = tsn.TSN_Network
sim-time-limit = 1.0s

# enable multiple canvas visualizers
*.visualizer.typename = "IntegratedMultiCanvasVisualizer"

# network route activity visualization
*.visualizer.numNetworkRouteVisualizers = 1
*.visualizer.networkRouteVisualizer[*].displayRoutes = true
*.visualizer.networkRouteVisualizer[0].packetFilter = "\"ats*\""
*.visualizer.networkRouteVisualizer[0].lineColor = "red1"

*.*.eth[*].bitrate = 1Gbps

# packet processing delay
*.*.bridging.directionReverser.delayer.typename = "PacketDelayer"
*.*.bridging.directionReverser.delayer.delay = 8us

*.ES_1.numApps = 5
*.ES_2.numApps = 6
*.ES_3.numApps = 4
*.ES_4.numApps = 4
*.ES_5.numApps = 5
*.ES_6.numApps = 6
*.ES_7.numApps = 4
*.ES_8.numApps = 4
*.ES_9.numApps = 4
*.ES_10.numApps = 4
*.ES_11.numApps = 6
*.ES_12.numApps = 3
*.ES_13.numApps = 3
*.ES_14.numApps = 5
*.ES_15.numApps = 2
*.ES_16.numApps = 4
*.ES_17.numApps = 4
*.ES_18.numApps = 6
*.ES_19.numApps = 5
*.ES_20.numApps = 3
*.ES_21.numApps = 4
*.ES_22.numApps = 3
*.ES_23.numApps = 3
*.ES_24.numApps = 3
*.ES_25.numApps = 3
*.ES_26.numApps = 4
*.ES_27.numApps = 3
*.ES_28.numApps = 4
*.ES_29.numApps = 3
*.ES_30.numApps = 6
*.ES_31.numApps = 4
*.ES_32.numApps = 5
*.ES_33.numApps = 4
*.ES_34.numApps = 2
*.ES_35.numApps = 4
*.ES_36.numApps = 2
*.ES_37.numApps = 4
*.ES_38.numApps = 2
*.ES_39.numApps = 2
*.ES_40.numApps = 4
*.ES_41.numApps = 3
*.ES_42.numApps = 5
*.ES_43.numApps = 4
*.ES_44.numApps = 3
*.ES_45.numApps = 5
*.ES_46.numApps = 3
*.ES_47.numApps = 2
*.ES_48.numApps = 6
*.ES_49.numApps = 5
*.ES_50.numApps = 4
*.ES_51.numApps = 3
*.ES_52.numApps = 6
*.ES_53.numApps = 2
*.ES_54.numApps = 4
*.ES_55.numApps = 5
*.ES_56.numApps = 6
*.ES_57.numApps = 4
*.ES_58.numApps = 3
*.ES_59.numApps = 4
*.ES_60.numApps = 3
*.ES_61.numApps = 3
*.ES_62.numApps = 6
*.ES_63.numApps = 6
*.ES_64.numApps = 2
*.ES_65.numApps = 3
*.ES_66.numApps = 4
*.ES_67.numApps = 3
*.ES_68.numApps = 4
*.ES_69.numApps = 6
*.ES_70.numApps = 4
*.ES_71.numApps = 3
*.ES_72.numApps = 5
*.ES_73.numApps = 2
*.ES_74.numApps = 2
*.ES_75.numApps = 4
*.ES_76.numApps = 5
*.ES_77.numApps = 4
*.ES_78.numApps = 5
*.ES_79.numApps = 5
*.ES_80.numApps = 7
*.ES_81.numApps = 4
*.ES_82.numApps = 4
*.ES_83.numApps = 4
*.ES_84.numApps = 6
*.ES_85.numApps = 6
*.ES_86.numApps = 4
*.ES_87.numApps = 4
*.ES_88.numApps = 3
*.ES_89.numApps = 3
*.ES_90.numApps = 6
*.ES_91.numApps = 4
*.ES_92.numApps = 4
*.ES_93.numApps = 5
*.ES_94.numApps = 3
*.ES_95.numApps = 6
*.ES_96.numApps = 3
*.ES_97.numApps = 3
*.ES_98.numApps = 3
*.ES_99.numApps = 4
*.ES_100.numApps = 2
*.ES_1.app[0..1].typename = "UdpSourceApp"
*.ES_1.app[0].display-name = "ats-p2"
*.ES_1.app[0].io.destAddress = "ES_52"
*.ES_1.app[0].io.destPort = 1
*.ES_1.app[0].source.productionInterval = 2000us
*.ES_1.app[0].source.initialProductionOffset = 2000us
*.ES_1.app[0].source.packetLength = 883B
*.ES_1.app[1].display-name = "ats-p0"
*.ES_1.app[1].io.destAddress = "ES_45"
*.ES_1.app[1].io.destPort = 2
*.ES_1.app[1].source.productionInterval = 2000us
*.ES_1.app[1].source.initialProductionOffset = 2000us
*.ES_1.app[1].source.packetLength = 937B
*.ES_1.app[2..4].typename = "UdpSinkApp"
*.ES_1.app[2].io.localPort = 110
*.ES_1.app[3].io.localPort = 160
*.ES_1.app[4].io.localPort = 179
*.ES_2.app[0..1].typename = "UdpSourceApp"
*.ES_2.app[0].display-name = "ats-p7"
*.ES_2.app[0].io.destAddress = "ES_57"
*.ES_2.app[0].io.destPort = 3
*.ES_2.app[0].source.productionInterval = 2000us
*.ES_2.app[0].source.initialProductionOffset = 2000us
*.ES_2.app[0].source.packetLength = 950B
*.ES_2.app[1].display-name = "ats-p4"
*.ES_2.app[1].io.destAddress = "ES_83"
*.ES_2.app[1].io.destPort = 4
*.ES_2.app[1].source.productionInterval = 500us
*.ES_2.app[1].source.initialProductionOffset = 500us
*.ES_2.app[1].source.packetLength = 750B
*.ES_2.app[2..5].typename = "UdpSinkApp"
*.ES_2.app[2].io.localPort = 94
*.ES_2.app[3].io.localPort = 100
*.ES_2.app[4].io.localPort = 170
*.ES_2.app[5].io.localPort = 191
*.ES_3.app[0..1].typename = "UdpSourceApp"
*.ES_3.app[0].display-name = "ats-p4"
*.ES_3.app[0].io.destAddress = "ES_80"
*.ES_3.app[0].io.destPort = 5
*.ES_3.app[0].source.productionInterval = 500us
*.ES_3.app[0].source.initialProductionOffset = 500us
*.ES_3.app[0].source.packetLength = 818B
*.ES_3.app[1].display-name = "ats-p6"
*.ES_3.app[1].io.destAddress = "ES_26"
*.ES_3.app[1].io.destPort = 6
*.ES_3.app[1].source.productionInterval = 1000us
*.ES_3.app[1].source.initialProductionOffset = 1000us
*.ES_3.app[1].source.packetLength = 912B
*.ES_3.app[2..3].typename = "UdpSinkApp"
*.ES_3.app[2].io.localPort = 43
*.ES_3.app[3].io.localPort = 200
*.ES_4.app[0..1].typename = "UdpSourceApp"
*.ES_4.app[0].display-name = "ats-p1"
*.ES_4.app[0].io.destAddress = "ES_48"
*.ES_4.app[0].io.destPort = 7
*.ES_4.app[0].source.productionInterval = 500us
*.ES_4.app[0].source.initialProductionOffset = 500us
*.ES_4.app[0].source.packetLength = 608B
*.ES_4.app[1].display-name = "ats-p3"
*.ES_4.app[1].io.destAddress = "ES_90"
*.ES_4.app[1].io.destPort = 8
*.ES_4.app[1].source.productionInterval = 2000us
*.ES_4.app[1].source.initialProductionOffset = 2000us
*.ES_4.app[1].source.packetLength = 707B
*.ES_4.app[2..3].typename = "UdpSinkApp"
*.ES_4.app[2].io.localPort = 48
*.ES_4.app[3].io.localPort = 67
*.ES_5.app[0..1].typename = "UdpSourceApp"
*.ES_5.app[0].display-name = "ats-p4"
*.ES_5.app[0].io.destAddress = "ES_19"
*.ES_5.app[0].io.destPort = 9
*.ES_5.app[0].source.productionInterval = 2000us
*.ES_5.app[0].source.initialProductionOffset = 2000us
*.ES_5.app[0].source.packetLength = 962B
*.ES_5.app[1].display-name = "ats-p2"
*.ES_5.app[1].io.destAddress = "ES_84"
*.ES_5.app[1].io.destPort = 10
*.ES_5.app[1].source.productionInterval = 1000us
*.ES_5.app[1].source.initialProductionOffset = 1000us
*.ES_5.app[1].source.packetLength = 757B
*.ES_5.app[2..4].typename = "UdpSinkApp"
*.ES_5.app[2].io.localPort = 82
*.ES_5.app[3].io.localPort = 147
*.ES_5.app[4].io.localPort = 182
*.ES_6.app[0..1].typename = "UdpSourceApp"
*.ES_6.app[0].display-name = "ats-p5"
*.ES_6.app[0].io.destAddress = "ES_84"
*.ES_6.app[0].io.destPort = 11
*.ES_6.app[0].source.productionInterval = 2000us
*.ES_6.app[0].source.initialProductionOffset = 2000us
*.ES_6.app[0].source.packetLength = 562B
*.ES_6.app[1].display-name = "ats-p1"
*.ES_6.app[1].io.destAddress = "ES_31"
*.ES_6.app[1].io.destPort = 12
*.ES_6.app[1].source.productionInterval = 500us
*.ES_6.app[1].source.initialProductionOffset = 500us
*.ES_6.app[1].source.packetLength = 553B
*.ES_6.app[2..5].typename = "UdpSinkApp"
*.ES_6.app[2].io.localPort = 142
*.ES_6.app[3].io.localPort = 174
*.ES_6.app[4].io.localPort = 186
*.ES_6.app[5].io.localPort = 193
*.ES_7.app[0..1].typename = "UdpSourceApp"
*.ES_7.app[0].display-name = "ats-p0"
*.ES_7.app[0].io.destAddress = "ES_59"
*.ES_7.app[0].io.destPort = 13
*.ES_7.app[0].source.productionInterval = 1000us
*.ES_7.app[0].source.initialProductionOffset = 1000us
*.ES_7.app[0].source.packetLength = 978B
*.ES_7.app[1].display-name = "ats-p0"
*.ES_7.app[1].io.destAddress = "ES_83"
*.ES_7.app[1].io.destPort = 14
*.ES_7.app[1].source.productionInterval = 2000us
*.ES_7.app[1].source.initialProductionOffset = 2000us
*.ES_7.app[1].source.packetLength = 723B
*.ES_7.app[2..3].typename = "UdpSinkApp"
*.ES_7.app[2].io.localPort = 71
*.ES_7.app[3].io.localPort = 144
*.ES_8.app[0..1].typename = "UdpSourceApp"
*.ES_8.app[0].display-name = "ats-p0"
*.ES_8.app[0].io.destAddress = "ES_63"
*.ES_8.app[0].io.destPort = 15
*.ES_8.app[0].source.productionInterval = 2000us
*.ES_8.app[0].source.initialProductionOffset = 2000us
*.ES_8.app[0].source.packetLength = 569B
*.ES_8.app[1].display-name = "ats-p4"
*.ES_8.app[1].io.destAddress = "ES_19"
*.ES_8.app[1].io.destPort = 16
*.ES_8.app[1].source.productionInterval = 500us
*.ES_8.app[1].source.initialProductionOffset = 500us
*.ES_8.app[1].source.packetLength = 968B
*.ES_8.app[2..3].typename = "UdpSinkApp"
*.ES_8.app[2].io.localPort = 77
*.ES_8.app[3].io.localPort = 121
*.ES_9.app[0..1].typename = "UdpSourceApp"
*.ES_9.app[0].display-name = "ats-p3"
*.ES_9.app[0].io.destAddress = "ES_30"
*.ES_9.app[0].io.destPort = 17
*.ES_9.app[0].source.productionInterval = 2000us
*.ES_9.app[0].source.initialProductionOffset = 2000us
*.ES_9.app[0].source.packetLength = 874B
*.ES_9.app[1].display-name = "ats-p5"
*.ES_9.app[1].io.destAddress = "ES_72"
*.ES_9.app[1].io.destPort = 18
*.ES_9.app[1].source.productionInterval = 2000us
*.ES_9.app[1].source.initialProductionOffset = 2000us
*.ES_9.app[1].source.packetLength = 612B
*.ES_9.app[2..3].typename = "UdpSinkApp"
*.ES_9.app[2].io.localPort = 98
*.ES_9.app[3].io.localPort = 192
*.ES_10.app[0..1].typename = "UdpSourceApp"
*.ES_10.app[0].display-name = "ats-p5"
*.ES_10.app[0].io.destAddress = "ES_69"
*.ES_10.app[0].io.destPort = 19
*.ES_10.app[0].source.productionInterval = 1000us
*.ES_10.app[0].source.initialProductionOffset = 1000us
*.ES_10.app[0].source.packetLength = 955B
*.ES_10.app[1].display-name = "ats-p5"
*.ES_10.app[1].io.destAddress = "ES_95"
*.ES_10.app[1].io.destPort = 20
*.ES_10.app[1].source.productionInterval = 2000us
*.ES_10.app[1].source.initialProductionOffset = 2000us
*.ES_10.app[1].source.packetLength = 935B
*.ES_10.app[2..3].typename = "UdpSinkApp"
*.ES_10.app[2].io.localPort = 125
*.ES_10.app[3].io.localPort = 159
*.ES_11.app[0..1].typename = "UdpSourceApp"
*.ES_11.app[0].display-name = "ats-p0"
*.ES_11.app[0].io.destAddress = "ES_63"
*.ES_11.app[0].io.destPort = 21
*.ES_11.app[0].source.productionInterval = 500us
*.ES_11.app[0].source.initialProductionOffset = 500us
*.ES_11.app[0].source.packetLength = 613B
*.ES_11.app[1].display-name = "ats-p3"
*.ES_11.app[1].io.destAddress = "ES_91"
*.ES_11.app[1].io.destPort = 22
*.ES_11.app[1].source.productionInterval = 500us
*.ES_11.app[1].source.initialProductionOffset = 500us
*.ES_11.app[1].source.packetLength = 799B
*.ES_11.app[2..5].typename = "UdpSinkApp"
*.ES_11.app[2].io.localPort = 51
*.ES_11.app[3].io.localPort = 173
*.ES_11.app[4].io.localPort = 194
*.ES_11.app[5].io.localPort = 196
*.ES_12.app[0..1].typename = "UdpSourceApp"
*.ES_12.app[0].display-name = "ats-p6"
*.ES_12.app[0].io.destAddress = "ES_95"
*.ES_12.app[0].io.destPort = 23
*.ES_12.app[0].source.productionInterval = 1000us
*.ES_12.app[0].source.initialProductionOffset = 1000us
*.ES_12.app[0].source.packetLength = 664B
*.ES_12.app[1].display-name = "ats-p5"
*.ES_12.app[1].io.destAddress = "ES_28"
*.ES_12.app[1].io.destPort = 24
*.ES_12.app[1].source.productionInterval = 2000us
*.ES_12.app[1].source.initialProductionOffset = 2000us
*.ES_12.app[1].source.packetLength = 675B
*.ES_12.app[2].typename = "UdpSinkApp"
*.ES_12.app[2].io.localPort = 114
*.ES_13.app[0..1].typename = "UdpSourceApp"
*.ES_13.app[0].display-name = "ats-p7"
*.ES_13.app[0].io.destAddress = "ES_88"
*.ES_13.app[0].io.destPort = 25
*.ES_13.app[0].source.productionInterval = 500us
*.ES_13.app[0].source.initialProductionOffset = 500us
*.ES_13.app[0].source.packetLength = 845B
*.ES_13.app[1].display-name = "ats-p7"
*.ES_13.app[1].io.destAddress = "ES_49"
*.ES_13.app[1].io.destPort = 26
*.ES_13.app[1].source.productionInterval = 500us
*.ES_13.app[1].source.initialProductionOffset = 500us
*.ES_13.app[1].source.packetLength = 584B
*.ES_13.app[2].typename = "UdpSinkApp"
*.ES_13.app[2].io.localPort = 61
*.ES_14.app[0..1].typename = "UdpSourceApp"
*.ES_14.app[0].display-name = "ats-p2"
*.ES_14.app[0].io.destAddress = "ES_17"
*.ES_14.app[0].io.destPort = 27
*.ES_14.app[0].source.productionInterval = 1000us
*.ES_14.app[0].source.initialProductionOffset = 1000us
*.ES_14.app[0].source.packetLength = 688B
*.ES_14.app[1].display-name = "ats-p5"
*.ES_14.app[1].io.destAddress = "ES_65"
*.ES_14.app[1].io.destPort = 28
*.ES_14.app[1].source.productionInterval = 2000us
*.ES_14.app[1].source.initialProductionOffset = 2000us
*.ES_14.app[1].source.packetLength = 756B
*.ES_14.app[2..4].typename = "UdpSinkApp"
*.ES_14.app[2].io.localPort = 89
*.ES_14.app[3].io.localPort = 109
*.ES_14.app[4].io.localPort = 157
*.ES_15.app[0..1].typename = "UdpSourceApp"
*.ES_15.app[0].display-name = "ats-p2"
*.ES_15.app[0].io.destAddress = "ES_63"
*.ES_15.app[0].io.destPort = 29
*.ES_15.app[0].source.productionInterval = 2000us
*.ES_15.app[0].source.initialProductionOffset = 2000us
*.ES_15.app[0].source.packetLength = 900B
*.ES_15.app[1].display-name = "ats-p3"
*.ES_15.app[1].io.destAddress = "ES_82"
*.ES_15.app[1].io.destPort = 30
*.ES_15.app[1].source.productionInterval = 2000us
*.ES_15.app[1].source.initialProductionOffset = 2000us
*.ES_15.app[1].source.packetLength = 632B
*.ES_16.app[0..1].typename = "UdpSourceApp"
*.ES_16.app[0].display-name = "ats-p4"
*.ES_16.app[0].io.destAddress = "ES_55"
*.ES_16.app[0].io.destPort = 31
*.ES_16.app[0].source.productionInterval = 1000us
*.ES_16.app[0].source.initialProductionOffset = 1000us
*.ES_16.app[0].source.packetLength = 593B
*.ES_16.app[1].display-name = "ats-p7"
*.ES_16.app[1].io.destAddress = "ES_70"
*.ES_16.app[1].io.destPort = 32
*.ES_16.app[1].source.productionInterval = 2000us
*.ES_16.app[1].source.initialProductionOffset = 2000us
*.ES_16.app[1].source.packetLength = 997B
*.ES_16.app[2..3].typename = "UdpSinkApp"
*.ES_16.app[2].io.localPort = 57
*.ES_16.app[3].io.localPort = 102
*.ES_17.app[0..1].typename = "UdpSourceApp"
*.ES_17.app[0].display-name = "ats-p4"
*.ES_17.app[0].io.destAddress = "ES_91"
*.ES_17.app[0].io.destPort = 33
*.ES_17.app[0].source.productionInterval = 2000us
*.ES_17.app[0].source.initialProductionOffset = 2000us
*.ES_17.app[0].source.packetLength = 776B
*.ES_17.app[1].display-name = "ats-p4"
*.ES_17.app[1].io.destAddress = "ES_21"
*.ES_17.app[1].io.destPort = 34
*.ES_17.app[1].source.productionInterval = 2000us
*.ES_17.app[1].source.initialProductionOffset = 2000us
*.ES_17.app[1].source.packetLength = 872B
*.ES_17.app[2..3].typename = "UdpSinkApp"
*.ES_17.app[2].io.localPort = 27
*.ES_17.app[3].io.localPort = 131
*.ES_18.app[0..1].typename = "UdpSourceApp"
*.ES_18.app[0].display-name = "ats-p3"
*.ES_18.app[0].io.destAddress = "ES_40"
*.ES_18.app[0].io.destPort = 35
*.ES_18.app[0].source.productionInterval = 2000us
*.ES_18.app[0].source.initialProductionOffset = 2000us
*.ES_18.app[0].source.packetLength = 789B
*.ES_18.app[1].display-name = "ats-p3"
*.ES_18.app[1].io.destAddress = "ES_49"
*.ES_18.app[1].io.destPort = 36
*.ES_18.app[1].source.productionInterval = 500us
*.ES_18.app[1].source.initialProductionOffset = 500us
*.ES_18.app[1].source.packetLength = 656B
*.ES_18.app[2..5].typename = "UdpSinkApp"
*.ES_18.app[2].io.localPort = 44
*.ES_18.app[3].io.localPort = 86
*.ES_18.app[4].io.localPort = 96
*.ES_18.app[5].io.localPort = 148
*.ES_19.app[0..1].typename = "UdpSourceApp"
*.ES_19.app[0].display-name = "ats-p0"
*.ES_19.app[0].io.destAddress = "ES_24"
*.ES_19.app[0].io.destPort = 37
*.ES_19.app[0].source.productionInterval = 1000us
*.ES_19.app[0].source.initialProductionOffset = 1000us
*.ES_19.app[0].source.packetLength = 924B
*.ES_19.app[1].display-name = "ats-p5"
*.ES_19.app[1].io.destAddress = "ES_60"
*.ES_19.app[1].io.destPort = 38
*.ES_19.app[1].source.productionInterval = 500us
*.ES_19.app[1].source.initialProductionOffset = 500us
*.ES_19.app[1].source.packetLength = 577B
*.ES_19.app[2..4].typename = "UdpSinkApp"
*.ES_19.app[2].io.localPort = 9
*.ES_19.app[3].io.localPort = 16
*.ES_19.app[4].io.localPort = 136
*.ES_20.app[0..1].typename = "UdpSourceApp"
*.ES_20.app[0].display-name = "ats-p1"
*.ES_20.app[0].io.destAddress = "ES_95"
*.ES_20.app[0].io.destPort = 39
*.ES_20.app[0].source.productionInterval = 1000us
*.ES_20.app[0].source.initialProductionOffset = 1000us
*.ES_20.app[0].source.packetLength = 894B
*.ES_20.app[1].display-name = "ats-p6"
*.ES_20.app[1].io.destAddress = "ES_78"
*.ES_20.app[1].io.destPort = 40
*.ES_20.app[1].source.productionInterval = 500us
*.ES_20.app[1].source.initialProductionOffset = 500us
*.ES_20.app[1].source.packetLength = 641B
*.ES_20.app[2].typename = "UdpSinkApp"
*.ES_20.app[2].io.localPort = 133
*.ES_21.app[0..1].typename = "UdpSourceApp"
*.ES_21.app[0].display-name = "ats-p1"
*.ES_21.app[0].io.destAddress = "ES_26"
*.ES_21.app[0].io.destPort = 41
*.ES_21.app[0].source.productionInterval = 1000us
*.ES_21.app[0].source.initialProductionOffset = 1000us
*.ES_21.app[0].source.packetLength = 895B
*.ES_21.app[1].display-name = "ats-p2"
*.ES_21.app[1].io.destAddress = "ES_56"
*.ES_21.app[1].io.destPort = 42
*.ES_21.app[1].source.productionInterval = 2000us
*.ES_21.app[1].source.initialProductionOffset = 2000us
*.ES_21.app[1].source.packetLength = 542B
*.ES_21.app[2..3].typename = "UdpSinkApp"
*.ES_21.app[2].io.localPort = 34
*.ES_21.app[3].io.localPort = 46
*.ES_22.app[0..1].typename = "UdpSourceApp"
*.ES_22.app[0].display-name = "ats-p2"
*.ES_22.app[0].io.destAddress = "ES_3"
*.ES_22.app[0].io.destPort = 43
*.ES_22.app[0].source.productionInterval = 500us
*.ES_22.app[0].source.initialProductionOffset = 500us
*.ES_22.app[0].source.packetLength = 791B
*.ES_22.app[1].display-name = "ats-p0"
*.ES_22.app[1].io.destAddress = "ES_18"
*.ES_22.app[1].io.destPort = 44
*.ES_22.app[1].source.productionInterval = 1000us
*.ES_22.app[1].source.initialProductionOffset = 1000us
*.ES_22.app[1].source.packetLength = 876B
*.ES_22.app[2].typename = "UdpSinkApp"
*.ES_22.app[2].io.localPort = 59
*.ES_23.app[0..1].typename = "UdpSourceApp"
*.ES_23.app[0].display-name = "ats-p3"
*.ES_23.app[0].io.destAddress = "ES_41"
*.ES_23.app[0].io.destPort = 45
*.ES_23.app[0].source.productionInterval = 500us
*.ES_23.app[0].source.initialProductionOffset = 500us
*.ES_23.app[0].source.packetLength = 766B
*.ES_23.app[1].display-name = "ats-p3"
*.ES_23.app[1].io.destAddress = "ES_21"
*.ES_23.app[1].io.destPort = 46
*.ES_23.app[1].source.productionInterval = 1000us
*.ES_23.app[1].source.initialProductionOffset = 1000us
*.ES_23.app[1].source.packetLength = 926B
*.ES_23.app[2].typename = "UdpSinkApp"
*.ES_23.app[2].io.localPort = 113
*.ES_24.app[0..1].typename = "UdpSourceApp"
*.ES_24.app[0].display-name = "ats-p0"
*.ES_24.app[0].io.destAddress = "ES_82"
*.ES_24.app[0].io.destPort = 47
*.ES_24.app[0].source.productionInterval = 1000us
*.ES_24.app[0].source.initialProductionOffset = 1000us
*.ES_24.app[0].source.packetLength = 525B
*.ES_24.app[1].display-name = "ats-p0"
*.ES_24.app[1].io.destAddress = "ES_4"
*.ES_24.app[1].io.destPort = 48
*.ES_24.app[1].source.productionInterval = 1000us
*.ES_24.app[1].source.initialProductionOffset = 1000us
*.ES_24.app[1].source.packetLength = 611B
*.ES_24.app[2].typename = "UdpSinkApp"
*.ES_24.app[2].io.localPort = 37
*.ES_25.app[0..1].typename = "UdpSourceApp"
*.ES_25.app[0].display-name = "ats-p1"
*.ES_25.app[0].io.destAddress = "ES_80"
*.ES_25.app[0].io.destPort = 49
*.ES_25.app[0].source.productionInterval = 500us
*.ES_25.app[0].source.initialProductionOffset = 500us
*.ES_25.app[0].source.packetLength = 754B
*.ES_25.app[1].display-name = "ats-p5"
*.ES_25.app[1].io.destAddress = "ES_93"
*.ES_25.app[1].io.destPort = 50
*.ES_25.app[1].source.productionInterval = 500us
*.ES_25.app[1].source.initialProductionOffset = 500us
*.ES_25.app[1].source.packetLength = 924B
*.ES_25.app[2].typename = "UdpSinkApp"
*.ES_25.app[2].io.localPort = 163
*.ES_26.app[0..1].typename = "UdpSourceApp"
*.ES_26.app[0].display-name = "ats-p2"
*.ES_26.app[0].io.destAddress = "ES_11"
*.ES_26.app[0].io.destPort = 51
*.ES_26.app[0].source.productionInterval = 500us
*.ES_26.app[0].source.initialProductionOffset = 500us
*.ES_26.app[0].source.packetLength = 830B
*.ES_26.app[1].display-name = "ats-p6"
*.ES_26.app[1].io.destAddress = "ES_66"
*.ES_26.app[1].io.destPort = 52
*.ES_26.app[1].source.productionInterval = 1000us
*.ES_26.app[1].source.initialProductionOffset = 1000us
*.ES_26.app[1].source.packetLength = 502B
*.ES_26.app[2..3].typename = "UdpSinkApp"
*.ES_26.app[2].io.localPort = 6
*.ES_26.app[3].io.localPort = 41
*.ES_27.app[0..1].typename = "UdpSourceApp"
*.ES_27.app[0].display-name = "ats-p3"
*.ES_27.app[0].io.destAddress = "ES_72"
*.ES_27.app[0].io.destPort = 53
*.ES_27.app[0].source.productionInterval = 2000us
*.ES_27.app[0].source.initialProductionOffset = 2000us
*.ES_27.app[0].source.packetLength = 976B
*.ES_27.app[1].display-name = "ats-p5"
*.ES_27.app[1].io.destAddress = "ES_63"
*.ES_27.app[1].io.destPort = 54
*.ES_27.app[1].source.productionInterval = 2000us
*.ES_27.app[1].source.initialProductionOffset = 2000us
*.ES_27.app[1].source.packetLength = 909B
*.ES_27.app[2].typename = "UdpSinkApp"
*.ES_27.app[2].io.localPort = 152
*.ES_28.app[0..1].typename = "UdpSourceApp"
*.ES_28.app[0].display-name = "ats-p6"
*.ES_28.app[0].io.destAddress = "ES_85"
*.ES_28.app[0].io.destPort = 55
*.ES_28.app[0].source.productionInterval = 500us
*.ES_28.app[0].source.initialProductionOffset = 500us
*.ES_28.app[0].source.packetLength = 966B
*.ES_28.app[1].display-name = "ats-p4"
*.ES_28.app[1].io.destAddress = "ES_96"
*.ES_28.app[1].io.destPort = 56
*.ES_28.app[1].source.productionInterval = 1000us
*.ES_28.app[1].source.initialProductionOffset = 1000us
*.ES_28.app[1].source.packetLength = 744B
*.ES_28.app[2..3].typename = "UdpSinkApp"
*.ES_28.app[2].io.localPort = 24
*.ES_28.app[3].io.localPort = 87
*.ES_29.app[0..1].typename = "UdpSourceApp"
*.ES_29.app[0].display-name = "ats-p2"
*.ES_29.app[0].io.destAddress = "ES_16"
*.ES_29.app[0].io.destPort = 57
*.ES_29.app[0].source.productionInterval = 2000us
*.ES_29.app[0].source.initialProductionOffset = 2000us
*.ES_29.app[0].source.packetLength = 962B
*.ES_29.app[1].display-name = "ats-p2"
*.ES_29.app[1].io.destAddress = "ES_76"
*.ES_29.app[1].io.destPort = 58
*.ES_29.app[1].source.productionInterval = 1000us
*.ES_29.app[1].source.initialProductionOffset = 1000us
*.ES_29.app[1].source.packetLength = 665B
*.ES_29.app[2].typename = "UdpSinkApp"
*.ES_29.app[2].io.localPort = 97
*.ES_30.app[0..1].typename = "UdpSourceApp"
*.ES_30.app[0].display-name = "ats-p0"
*.ES_30.app[0].io.destAddress = "ES_22"
*.ES_30.app[0].io.destPort = 59
*.ES_30.app[0].source.productionInterval = 2000us
*.ES_30.app[0].source.initialProductionOffset = 2000us
*.ES_30.app[0].source.packetLength = 898B
*.ES_30.app[1].display-name = "ats-p3"
*.ES_30.app[1].io.destAddress = "ES_54"
*.ES_30.app[1].io.destPort = 60
*.ES_30.app[1].source.productionInterval = 500us
*.ES_30.app[1].source.initialProductionOffset = 500us
*.ES_30.app[1].source.packetLength = 909B
*.ES_30.app[2..5].typename = "UdpSinkApp"
*.ES_30.app[2].io.localPort = 17
*.ES_30.app[3].io.localPort = 68
*.ES_30.app[4].io.localPort = 91
*.ES_30.app[5].io.localPort = 137
*.ES_31.app[0..1].typename = "UdpSourceApp"
*.ES_31.app[0].display-name = "ats-p3"
*.ES_31.app[0].io.destAddress = "ES_13"
*.ES_31.app[0].io.destPort = 61
*.ES_31.app[0].source.productionInterval = 2000us
*.ES_31.app[0].source.initialProductionOffset = 2000us
*.ES_31.app[0].source.packetLength = 828B
*.ES_31.app[1].display-name = "ats-p3"
*.ES_31.app[1].io.destAddress = "ES_99"
*.ES_31.app[1].io.destPort = 62
*.ES_31.app[1].source.productionInterval = 2000us
*.ES_31.app[1].source.initialProductionOffset = 2000us
*.ES_31.app[1].source.packetLength = 681B
*.ES_31.app[2..3].typename = "UdpSinkApp"
*.ES_31.app[2].io.localPort = 12
*.ES_31.app[3].io.localPort = 126
*.ES_32.app[0..1].typename = "UdpSourceApp"
*.ES_32.app[0].display-name = "ats-p0"
*.ES_32.app[0].io.destAddress = "ES_50"
*.ES_32.app[0].io.destPort = 63
*.ES_32.app[0].source.productionInterval = 500us
*.ES_32.app[0].source.initialProductionOffset = 500us
*.ES_32.app[0].source.packetLength = 771B
*.ES_32.app[1].display-name = "ats-p6"
*.ES_32.app[1].io.destAddress = "ES_48"
*.ES_32.app[1].io.destPort = 64
*.ES_32.app[1].source.productionInterval = 1000us
*.ES_32.app[1].source.initialProductionOffset = 1000us
*.ES_32.app[1].source.packetLength = 902B
*.ES_32.app[2..4].typename = "UdpSinkApp"
*.ES_32.app[2].io.localPort = 72
*.ES_32.app[3].io.localPort = 180
*.ES_32.app[4].io.localPort = 185
*.ES_33.app[0..1].typename = "UdpSourceApp"
*.ES_33.app[0].display-name = "ats-p7"
*.ES_33.app[0].io.destAddress = "ES_35"
*.ES_33.app[0].io.destPort = 65
*.ES_33.app[0].source.productionInterval = 1000us
*.ES_33.app[0].source.initialProductionOffset = 1000us
*.ES_33.app[0].source.packetLength = 813B
*.ES_33.app[1].display-name = "ats-p6"
*.ES_33.app[1].io.destAddress = "ES_69"
*.ES_33.app[1].io.destPort = 66
*.ES_33.app[1].source.productionInterval = 500us
*.ES_33.app[1].source.initialProductionOffset = 500us
*.ES_33.app[1].source.packetLength = 831B
*.ES_33.app[2..3].typename = "UdpSinkApp"
*.ES_33.app[2].io.localPort = 81
*.ES_33.app[3].io.localPort = 128
*.ES_34.app[0..1].typename = "UdpSourceApp"
*.ES_34.app[0].display-name = "ats-p5"
*.ES_34.app[0].io.destAddress = "ES_4"
*.ES_34.app[0].io.destPort = 67
*.ES_34.app[0].source.productionInterval = 500us
*.ES_34.app[0].source.initialProductionOffset = 500us
*.ES_34.app[0].source.packetLength = 780B
*.ES_34.app[1].display-name = "ats-p2"
*.ES_34.app[1].io.destAddress = "ES_30"
*.ES_34.app[1].io.destPort = 68
*.ES_34.app[1].source.productionInterval = 1000us
*.ES_34.app[1].source.initialProductionOffset = 1000us
*.ES_34.app[1].source.packetLength = 692B
*.ES_35.app[0..1].typename = "UdpSourceApp"
*.ES_35.app[0].display-name = "ats-p7"
*.ES_35.app[0].io.destAddress = "ES_52"
*.ES_35.app[0].io.destPort = 69
*.ES_35.app[0].source.productionInterval = 1000us
*.ES_35.app[0].source.initialProductionOffset = 1000us
*.ES_35.app[0].source.packetLength = 994B
*.ES_35.app[1].display-name = "ats-p1"
*.ES_35.app[1].io.destAddress = "ES_93"
*.ES_35.app[1].io.destPort = 70
*.ES_35.app[1].source.productionInterval = 500us
*.ES_35.app[1].source.initialProductionOffset = 500us
*.ES_35.app[1].source.packetLength = 913B
*.ES_35.app[2..3].typename = "UdpSinkApp"
*.ES_35.app[2].io.localPort = 65
*.ES_35.app[3].io.localPort = 197
*.ES_36.app[0..1].typename = "UdpSourceApp"
*.ES_36.app[0].display-name = "ats-p1"
*.ES_36.app[0].io.destAddress = "ES_7"
*.ES_36.app[0].io.destPort = 71
*.ES_36.app[0].source.productionInterval = 1000us
*.ES_36.app[0].source.initialProductionOffset = 1000us
*.ES_36.app[0].source.packetLength = 874B
*.ES_36.app[1].display-name = "ats-p2"
*.ES_36.app[1].io.destAddress = "ES_32"
*.ES_36.app[1].io.destPort = 72
*.ES_36.app[1].source.productionInterval = 500us
*.ES_36.app[1].source.initialProductionOffset = 500us
*.ES_36.app[1].source.packetLength = 975B
*.ES_37.app[0..1].typename = "UdpSourceApp"
*.ES_37.app[0].display-name = "ats-p6"
*.ES_37.app[0].io.destAddress = "ES_80"
*.ES_37.app[0].io.destPort = 73
*.ES_37.app[0].source.productionInterval = 1000us
*.ES_37.app[0].source.initialProductionOffset = 1000us
*.ES_37.app[0].source.packetLength = 521B
*.ES_37.app[1].display-name = "ats-p3"
*.ES_37.app[1].io.destAddress = "ES_56"
*.ES_37.app[1].io.destPort = 74
*.ES_37.app[1].source.productionInterval = 2000us
*.ES_37.app[1].source.initialProductionOffset = 2000us
*.ES_37.app[1].source.packetLength = 961B
*.ES_37.app[2..3].typename = "UdpSinkApp"
*.ES_37.app[2].io.localPort = 149
*.ES_37.app[3].io.localPort = 188
*.ES_38.app[0..1].typename = "UdpSourceApp"
*.ES_38.app[0].display-name = "ats-p4"
*.ES_38.app[0].io.destAddress = "ES_75"
*.ES_38.app[0].io.destPort = 75
*.ES_38.app[0].source.productionInterval = 2000us
*.ES_38.app[0].source.initialProductionOffset = 2000us
*.ES_38.app[0].source.packetLength = 745B
*.ES_38.app[1].display-name = "ats-p5"
*.ES_38.app[1].io.destAddress = "ES_55"
*.ES_38.app[1].io.destPort = 76
*.ES_38.app[1].source.productionInterval = 1000us
*.ES_38.app[1].source.initialProductionOffset = 1000us
*.ES_38.app[1].source.packetLength = 958B
*.ES_39.app[0..1].typename = "UdpSourceApp"
*.ES_39.app[0].display-name = "ats-p0"
*.ES_39.app[0].io.destAddress = "ES_8"
*.ES_39.app[0].io.destPort = 77
*.ES_39.app[0].source.productionInterval = 500us
*.ES_39.app[0].source.initialProductionOffset = 500us
*.ES_39.app[0].source.packetLength = 671B
*.ES_39.app[1].display-name = "ats-p7"
*.ES_39.app[1].io.destAddress = "ES_85"
*.ES_39.app[1].io.destPort = 78
*.ES_39.app[1].source.productionInterval = 1000us
*.ES_39.app[1].source.initialProductionOffset = 1000us
*.ES_39.app[1].source.packetLength = 622B
*.ES_40.app[0..1].typename = "UdpSourceApp"
*.ES_40.app[0].display-name = "ats-p7"
*.ES_40.app[0].io.destAddress = "ES_94"
*.ES_40.app[0].io.destPort = 79
*.ES_40.app[0].source.productionInterval = 2000us
*.ES_40.app[0].source.initialProductionOffset = 2000us
*.ES_40.app[0].source.packetLength = 813B
*.ES_40.app[1].display-name = "ats-p1"
*.ES_40.app[1].io.destAddress = "ES_56"
*.ES_40.app[1].io.destPort = 80
*.ES_40.app[1].source.productionInterval = 2000us
*.ES_40.app[1].source.initialProductionOffset = 2000us
*.ES_40.app[1].source.packetLength = 812B
*.ES_40.app[2..3].typename = "UdpSinkApp"
*.ES_40.app[2].io.localPort = 35
*.ES_40.app[3].io.localPort = 106
*.ES_41.app[0..1].typename = "UdpSourceApp"
*.ES_41.app[0].display-name = "ats-p2"
*.ES_41.app[0].io.destAddress = "ES_33"
*.ES_41.app[0].io.destPort = 81
*.ES_41.app[0].source.productionInterval = 500us
*.ES_41.app[0].source.initialProductionOffset = 500us
*.ES_41.app[0].source.packetLength = 820B
*.ES_41.app[1].display-name = "ats-p5"
*.ES_41.app[1].io.destAddress = "ES_5"
*.ES_41.app[1].io.destPort = 82
*.ES_41.app[1].source.productionInterval = 2000us
*.ES_41.app[1].source.initialProductionOffset = 2000us
*.ES_41.app[1].source.packetLength = 745B
*.ES_41.app[2].typename = "UdpSinkApp"
*.ES_41.app[2].io.localPort = 45
*.ES_42.app[0..1].typename = "UdpSourceApp"
*.ES_42.app[0].display-name = "ats-p1"
*.ES_42.app[0].io.destAddress = "ES_46"
*.ES_42.app[0].io.destPort = 83
*.ES_42.app[0].source.productionInterval = 1000us
*.ES_42.app[0].source.initialProductionOffset = 1000us
*.ES_42.app[0].source.packetLength = 579B
*.ES_42.app[1].display-name = "ats-p3"
*.ES_42.app[1].io.destAddress = "ES_49"
*.ES_42.app[1].io.destPort = 84
*.ES_42.app[1].source.productionInterval = 500us
*.ES_42.app[1].source.initialProductionOffset = 500us
*.ES_42.app[1].source.packetLength = 913B
*.ES_42.app[2..4].typename = "UdpSinkApp"