[General]
network = tsn.TSN_Network
sim-time-limit = 1.0s

# enable multiple canvas visualizers
*.visualizer.typename = "IntegratedMultiCanvasVisualizer"

# network route activity visualization
*.visualizer.numNetworkRouteVisualizers = 1
*.visualizer.networkRouteVisualizer[*].displayRoutes = true
*.visualizer.networkRouteVisualizer[0].packetFilter = "\"ats*\""
*.visualizer.networkRouteVisualizer[0].lineColor = "red1"

*.*.eth[*].bitrate = 1Gbps

# packet processing delay
*.*.bridging.directionReverser.delayer.typename = "PacketDelayer"
*.*.bridging.directionReverser.delayer.delay = 8us

*.ES_1.numApps = 4
*.ES_2.numApps = 6
*.ES_3.numApps = 3
*.ES_4.numApps = 2
*.ES_5.numApps = 4
*.ES_6.numApps = 3
*.ES_7.numApps = 5
*.ES_8.numApps = 3
*.ES_9.numApps = 3
*.ES_10.numApps = 3
*.ES_11.numApps = 3
*.ES_12.numApps = 6
*.ES_13.numApps = 4
*.ES_14.numApps = 3
*.ES_15.numApps = 4
*.ES_16.numApps = 4
*.ES_17.numApps = 4
*.ES_18.numApps = 6
*.ES_19.numApps = 4
*.ES_20.numApps = 4
*.ES_21.numApps = 2
*.ES_22.numApps = 2
*.ES_23.numApps = 4
*.ES_24.numApps = 3
*.ES_25.numApps = 3
*.ES_26.numApps = 4
*.ES_27.numApps = 5
*.ES_28.numApps = 4
*.ES_29.numApps = 4
*.ES_30.numApps = 7
*.ES_31.numApps = 2
*.ES_32.numApps = 5
*.ES_33.numApps = 4
*.ES_34.numApps = 2
*.ES_35.numApps = 4
*.ES_36.numApps = 3
*.ES_37.numApps = 6
*.ES_38.numApps = 3
*.ES_39.numApps = 4
*.ES_40.numApps = 4
*.ES_41.numApps = 3
*.ES_42.numApps = 6
*.ES_43.numApps = 3
*.ES_44.numApps = 4
*.ES_45.numApps = 3
*.ES_46.numApps = 3
*.ES_47.numApps = 4
*.ES_48.numApps = 4
*.ES_49.numApps = 5
*.ES_50.numApps = 5
*.ES_51.numApps = 5
*.ES_52.numApps = 2
*.ES_53.numApps = 5
*.ES_54.numApps = 5
*.ES_55.numApps = 6
*.ES_56.numApps = 4
*.ES_57.numApps = 4
*.ES_58.numApps = 4
*.ES_59.numApps = 4
*.ES_60.numApps = 3
*.ES_61.numApps = 3
*.ES_62.numApps = 3
*.ES_63.numApps = 5
*.ES_64.numApps = 5
*.ES_65.numApps = 4
*.ES_66.numApps = 5
*.ES_67.numApps = 2
*.ES_68.numApps = 5
*.ES_69.numApps = 3
*.ES_70.numApps = 5
*.ES_71.numApps = 3
*.ES_72.numApps = 3
*.ES_73.numApps = 4
*.ES_74.numApps = 2
*.ES_75.numApps = 7
*.ES_76.numApps = 3
*.ES_77.numApps = 3
*.ES_78.numApps = 4
*.ES_79.numApps = 5
*.ES_80.numApps = 3
*.ES_81.numApps = 3
*.ES_82.numApps = 8
*.ES_83.numApps = 3
*.ES_84.numApps = 2
*.ES_85.numApps = 4
*.ES_86.numApps = 11
*.ES_87.numApps = 3
*.ES_88.numApps = 9
*.ES_89.numApps = 4
*.ES_90.numApps = 2
*.ES_91.numApps = 3
*.ES_92.numApps = 4
*.ES_93.numApps = 4
*.ES_94.numApps = 3
*.ES_95.numApps = 5
*.ES_96.numApps = 3
*.ES_97.numApps = 8
*.ES_98.numApps = 3
*.ES_99.numApps = 6
*.ES_100.numApps = 3
*.ES_101.numApps = 5
*.ES_102.numApps = 3
*.ES_103.numApps = 3
*.ES_104.numApps = 6
*.ES_105.numApps = 4
*.ES_106.numApps = 3
*.ES_107.numApps = 5
*.ES_108.numApps = 4
*.ES_109.numApps = 4
*.ES_110.numApps = 5
*.ES_111.numApps = 6
*.ES_112.numApps = 4
*.ES_113.numApps = 3
*.ES_114.numApps = 2
*.ES_115.numApps = 7
*.ES_116.numApps = 5
*.ES_117.numApps = 5
*.ES_118.numApps = 3
*.ES_119.numApps = 6
*.ES_120.numApps = 3
*.ES_121.numApps = 5
*.ES_122.numApps = 4
*.ES_123.numApps = 3
*.ES_124.numApps = 4
*.ES_125.numApps = 2
*.ES_126.numApps = 7
*.ES_127.numApps = 4
*.ES_128.numApps = 3
*.ES_129.numApps = 4
*.ES_130.numApps = 3
*.ES_131.numApps = 3
*.ES_132.numApps = 3
*.ES_133.numApps = 3
*.ES_134.numApps = 5
*.ES_135.numApps = 5
*.ES_136.numApps = 2
*.ES_137.numApps = 3
*.ES_138.numApps = 3
*.ES_139.numApps = 3
*.ES_140.numApps = 6
*.ES_141.numApps = 7
*.ES_142.numApps = 4
*.ES_143.numApps = 3
*.ES_144.numApps = 4
*.ES_145.numApps = 4
*.ES_146.numApps = 4
*.ES_147.numApps = 5
*.ES_148.numApps = 4
*.ES_149.numApps = 2
*.ES_150.numApps = 4
*.ES_151.numApps = 5
*.ES_152.numApps = 7
*.ES_153.numApps = 5
*.ES_154.numApps = 10
*.ES_155.numApps = 4
*.ES_156.numApps = 3
*.ES_157.numApps = 6
*.ES_158.numApps = 5
*.ES_159.numApps = 3
*.ES_160.numApps = 3
*.ES_161.numApps = 3
*.ES_162.numApps = 3
*.ES_163.numApps = 5
*.ES_164.numApps = 4
*.ES_165.numApps = 2
*.ES_166.numApps = 5
*.ES_167.numApps = 4
*.ES_168.numApps = 5
*.ES_169.numApps = 3
*.ES_170.numApps = 5
*.ES_171.numApps = 3
*.ES_172.numApps = 2
*.ES_173.numApps = 4
*.ES_174.numApps = 2
*.ES_175.numApps = 3
*.ES_176.numApps = 5
*.ES_177.numApps = 3
*.ES_178.numApps = 2
*.ES_179.numApps = 3
*.ES_180.numApps = 2
*.ES_181.numApps = 4
*.ES_182.numApps = 5
*.ES_183.numApps = 2
*.ES_184.numApps = 4
*.ES_185.numApps = 4
*.ES_186.numApps = 4
*.ES_187.numApps = 4
*.ES_188.numApps = 6
*.ES_189.numApps = 3
*.ES_190.numApps = 5
*.ES_191.numApps = 4
*.ES_192.numApps = 5
*.ES_193.numApps = 3
*.ES_194.numApps = 2
*.ES_195.numApps = 5
*.ES_196.numApps = 4
*.ES_197.numApps = 3
*.ES_198.numApps = 2
*.ES_199.numApps = 3
*.ES_200.numApps = 3
*.ES_201.numApps = 2
*.ES_202.numApps = 3
*.ES_203.numApps = 3
*.ES_204.numApps = 2
*.ES_205.numApps = 4
*.ES_206.numApps = 6
*.ES_207.numApps = 4
*.ES_208.numApps = 6
*.ES_209.numApps = 8
*.ES_210.numApps = 5
*.ES_211.numApps = 3
*.ES_212.numApps = 4
*.ES_213.numApps = 4
*.ES_214.numApps = 5
*.ES_215.numApps = 2
*.ES_216.numApps = 2
*.ES_217.numApps = 6
*.ES_218.numApps = 6
*.ES_219.numApps = 4
*.ES_220.numApps = 5
*.ES_221.numApps = 5
*.ES_222.numApps = 3
*.ES_223.numApps = 3
*.ES_224.numApps = 6
*.ES_225.numApps = 3
*.ES_226.numApps = 3
*.ES_227.numApps = 5
*.ES_228.numApps = 4
*.ES_229.numApps = 6
*.ES_230.numApps = 5
*.ES_231.numApps = 3
*.ES_232.numApps = 4
*.ES_233.numApps = 7
*.ES_234.numApps = 5
*.ES_235.numApps = 7
*.ES_236.numApps = 3
*.ES_237.numApps = 4
*.ES_238.numApps = 4
*.ES_239.numApps = 4
*.ES_240.numApps = 3
*.ES_241.numApps = 4
*.ES_242.numApps = 6
*.ES_243.numApps = 3
*.ES_244.numApps = 2
*.ES_245.numApps = 3
*.ES_246.numApps = 6
*.ES_247.numApps = 2
*.ES_248.numApps = 5
*.ES_249.numApps = 3
*.ES_250.numApps = 4
*.ES_251.numApps = 4
*.ES_252.numApps = 2
*.ES_253.numApps = 3
*.ES_254.numApps = 2
*.ES_255.numApps = 3
*.ES_256.numApps = 2
*.ES_1.app[0..1].typename = "UdpSourceApp"
*.ES_1.app[0].display-name = "ats-p7"
*.ES_1.app[0].io.destAddress = "ES_30"
*.ES_1.app[0].io.destPort = 1
*.ES_1.app[0].source.productionInterval = 500us
*.ES_1.app[0].source.initialProductionOffset = 500us
*.ES_1.app[0].source.packetLength = 796B
*.ES_1.app[1].display-name = "ats-p7"
*.ES_1.app[1].io.destAddress = "ES_122"
*.ES_1.app[1].io.destPort = 2
*.ES_1.app[1].source.productionInterval = 1000us
*.ES_1.app[1].source.initialProductionOffset = 1000us
*.ES_1.app[1].source.packetLength = 908B
*.ES_1.app[2..3].typename = "UdpSinkApp"
*.ES_1.app[2].io.localPort = 238
*.ES_1.app[3].io.localPort = 320
*.ES_2.app[0..1].typename = "UdpSourceApp"
*.ES_2.app[0].display-name = "ats-p5"
*.ES_2.app[0].io.destAddress = "ES_176"
*.ES_2.app[0].io.destPort = 3
*.ES_2.app[0].source.productionInterval = 1000us
*.ES_2.app[0].source.initialProductionOffset = 1000us
*.ES_2.app[0].source.packetLength = 597B
*.ES_2.app[1].display-name = "ats-p4"
*.ES_2.app[1].io.destAddress = "ES_218"
*.ES_2.app[1].io.destPort = 4
*.ES_2.app[1].source.productionInterval = 500us
*.ES_2.app[1].source.initialProductionOffset = 500us
*.ES_2.app[1].source.packetLength = 997B
*.ES_2.app[2..5].typename = "UdpSinkApp"
*.ES_2.app[2].io.localPort = 6
*.ES_2.app[3].io.localPort = 61
*.ES_2.app[4].io.localPort = 138
*.ES_2.app[5].io.localPort = 366
*.ES_3.app[0..1].typename = "UdpSourceApp"
*.ES_3.app[0].display-name = "ats-p2"
*.ES_3.app[0].io.destAddress = "ES_27"
*.ES_3.app[0].io.destPort = 5
*.ES_3.app[0].source.productionInterval = 2000us
*.ES_3.app[0].source.initialProductionOffset = 2000us
*.ES_3.app[0].source.packetLength = 630B
*.ES_3.app[1].display-name = "ats-p5"
*.ES_3.app[1].io.destAddress = "ES_2"
*.ES_3.app[1].io.destPort = 6
*.ES_3.app[1].source.productionInterval = 1000us
*.ES_3.app[1].source.initialProductionOffset = 1000us
*.ES_3.app[1].source.packetLength = 815B
*.ES_3.app[2].typename = "UdpSinkApp"
*.ES_3.app[2].io.localPort = 192
*.ES_4.app[0..1].typename = "UdpSourceApp"
*.ES_4.app[0].display-name = "ats-p1"
*.ES_4.app[0].io.destAddress = "ES_18"
*.ES_4.app[0].io.destPort = 7
*.ES_4.app[0].source.productionInterval = 1000us
*.ES_4.app[0].source.initialProductionOffset = 1000us
*.ES_4.app[0].source.packetLength = 809B
*.ES_4.app[1].display-name = "ats-p1"
*.ES_4.app[1].io.destAddress = "ES_250"
*.ES_4.app[1].io.destPort = 8
*.ES_4.app[1].source.productionInterval = 2000us
*.ES_4.app[1].source.initialProductionOffset = 2000us
*.ES_4.app[1].source.packetLength = 713B
*.ES_5.app[0..1].typename = "UdpSourceApp"
*.ES_5.app[0].display-name = "ats-p3"
*.ES_5.app[0].io.destAddress = "ES_97"
*.ES_5.app[0].io.destPort = 9
*.ES_5.app[0].source.productionInterval = 500us
*.ES_5.app[0].source.initialProductionOffset = 500us
*.ES_5.app[0].source.packetLength = 733B
*.ES_5.app[1].display-name = "ats-p6"
*.ES_5.app[1].io.destAddress = "ES_147"
*.ES_5.app[1].io.destPort = 10
*.ES_5.app[1].source.productionInterval = 1000us
*.ES_5.app[1].source.initialProductionOffset = 1000us
*.ES_5.app[1].source.packetLength = 975B
*.ES_5.app[2..3].typename = "UdpSinkApp"
*.ES_5.app[2].io.localPort = 142
*.ES_5.app[3].io.localPort = 254
*.ES_6.app[0..1].typename = "UdpSourceApp"
*.ES_6.app[0].display-name = "ats-p1"
*.ES_6.app[0].io.destAddress = "ES_49"
*.ES_6.app[0].io.destPort = 11
*.ES_6.app[0].source.productionInterval = 2000us
*.ES_6.app[0].source.initialProductionOffset = 2000us
*.ES_6.app[0].source.packetLength = 885B
*.ES_6.app[1].display-name = "ats-p2"
*.ES_6.app[1].io.destAddress = "ES_88"
*.ES_6.app[1].io.destPort = 12
*.ES_6.app[1].source.productionInterval = 2000us
*.ES_6.app[1].source.initialProductionOffset = 2000us
*.ES_6.app[1].source.packetLength = 534B
*.ES_6.app[2].typename = "UdpSinkApp"
*.ES_6.app[2].io.localPort = 202
*.ES_7.app[0..1].typename = "UdpSourceApp"
*.ES_7.app[0].display-name = "ats-p4"
*.ES_7.app[0].io.destAddress = "ES_205"
*.ES_7.app[0].io.destPort = 13
*.ES_7.app[0].source.productionInterval = 500us
*.ES_7.app[0].source.initialProductionOffset = 500us
*.ES_7.app[0].source.packetLength = 901B
*.ES_7.app[1].display-name = "ats-p2"
*.ES_7.app[1].io.destAddress = "ES_200"
*.ES_7.app[1].io.destPort = 14
*.ES_7.app[1].source.productionInterval = 2000us
*.ES_7.app[1].source.initialProductionOffset = 2000us
*.ES_7.app[1].source.packetLength = 850B
*.ES_7.app[2..4].typename = "UdpSinkApp"
*.ES_7.app[2].io.localPort = 209
*.ES_7.app[3].io.localPort = 250
*.ES_7.app[4].io.localPort = 363
*.ES_8.app[0..1].typename = "UdpSourceApp"
*.ES_8.app[0].display-name = "ats-p3"
*.ES_8.app[0].io.destAddress = "ES_242"
*.ES_8.app[0].io.destPort = 15
*.ES_8.app[0].source.productionInterval = 2000us
*.ES_8.app[0].source.initialProductionOffset = 2000us
*.ES_8.app[0].source.packetLength = 994B
*.ES_8.app[1].display-name = "ats-p2"
*.ES_8.app[1].io.destAddress = "ES_9"
*.ES_8.app[1].io.destPort = 16
*.ES_8.app[1].source.productionInterval = 1000us
*.ES_8.app[1].source.initialProductionOffset = 1000us
*.ES_8.app[1].source.packetLength = 861B
*.ES_8.app[2].typename = "UdpSinkApp"
*.ES_8.app[2].io.localPort = 70
*.ES_9.app[0..1].typename = "UdpSourceApp"
*.ES_9.app[0].display-name = "ats-p1"
*.ES_9.app[0].io.destAddress = "ES_202"
*.ES_9.app[0].io.destPort = 17
*.ES_9.app[0].source.productionInterval = 1000us
*.ES_9.app[0].source.initialProductionOffset = 1000us
*.ES_9.app[0].source.packetLength = 722B
*.ES_9.app[1].display-name = "ats-p7"
*.ES_9.app[1].io.destAddress = "ES_63"
*.ES_9.app[1].io.destPort = 18
*.ES_9.app[1].source.productionInterval = 2000us
*.ES_9.app[1].source.initialProductionOffset = 2000us
*.ES_9.app[1].source.packetLength = 515B
*.ES_9.app[2].typename = "UdpSinkApp"
*.ES_9.app[2].io.localPort = 16
*.ES_10.app[0..1].typename = "UdpSourceApp"
*.ES_10.app[0].display-name = "ats-p2"
*.ES_10.app[0].io.destAddress = "ES_141"
*.ES_10.app[0].io.destPort = 19
*.ES_10.app[0].source.productionInterval = 500us
*.ES_10.app[0].source.initialProductionOffset = 500us
*.ES_10.app[0].source.packetLength = 871B
*.ES_10.app[1].display-name = "ats-p3"
*.ES_10.app[1].io.destAddress = "ES_134"
*.ES_10.app[1].io.destPort = 20
*.ES_10.app[1].source.productionInterval = 500us
*.ES_10.app[1].source.initialProductionOffset = 500us
*.ES_10.app[1].source.packetLength = 530B
*.ES_10.app[2].typename = "UdpSinkApp"
*.ES_10.app[2].io.localPort = 360
*.ES_11.app[0..1].typename = "UdpSourceApp"
*.ES_11.app[0].display-name = "ats-p6"
*.ES_11.app[0].io.destAddress = "ES_82"
*.ES_11.app[0].io.destPort = 21
*.ES_11.app[0].source.productionInterval = 1000us
*.ES_11.app[0].source.initialProductionOffset = 1000us
*.ES_11.app[0].source.packetLength = 524B
*.ES_11.app[1].display-name = "ats-p6"
*.ES_11.app[1].io.destAddress = "ES_39"
*.ES_11.app[1].io.destPort = 22
*.ES_11.app[1].source.productionInterval = 500us
*.ES_11.app[1].source.initialProductionOffset = 500us
*.ES_11.app[1].source.packetLength = 534B
*.ES_11.app[2].typename = "UdpSinkApp"
*.ES_11.app[2].io.localPort = 418
*.ES_12.app[0..1].typename = "UdpSourceApp"
*.ES_12.app[0].display-name = "ats-p1"
*.ES_12.app[0].io.destAddress = "ES_115"
*.ES_12.app[0].io.destPort = 23
*.ES_12.app[0].source.productionInterval = 2000us
*.ES_12.app[0].source.initialProductionOffset = 2000us
*.ES_12.app[0].source.packetLength = 625B
*.ES_12.app[1].display-name = "ats-p2"
*.ES_12.app[1].io.destAddress = "ES_241"
*.ES_12.app[1].io.destPort = 24
*.ES_12.app[1].source.productionInterval = 500us
*.ES_12.app[1].source.initialProductionOffset = 500us
*.ES_12.app[1].source.packetLength = 747B
*.ES_12.app[2..5].typename = "UdpSinkApp"
*.ES_12.app[2].io.localPort = 150
*.ES_12.app[3].io.localPort = 164
*.ES_12.app[4].io.localPort = 380
*.ES_12.app[5].io.localPort = 453
*.ES_13.app[0..1].typename = "UdpSourceApp"
*.ES_13.app[0].display-name = "ats-p4"
*.ES_13.app[0].io.destAddress = "ES_217"
*.ES_13.app[0].io.destPort = 25
*.ES_13.app[0].source.productionInterval = 2000us
*.ES_13.app[0].source.initialProductionOffset = 2000us
*.ES_13.app[0].source.packetLength = 662B
*.ES_13.app[1].display-name = "ats-p5"
*.ES_13.app[1].io.destAddress = "ES_65"
*.ES_13.app[1].io.destPort = 26
*.ES_13.app[1].source.productionInterval = 1000us
*.ES_13.app[1].source.initialProductionOffset = 1000us
*.ES_13.app[1].source.packetLength = 931B
*.ES_13.app[2..3].typename = "UdpSinkApp"
*.ES_13.app[2].io.localPort = 87
*.ES_13.app[3].io.localPort = 489
*.ES_14.app[0..1].typename = "UdpSourceApp"
*.ES_14.app[0].display-name = "ats-p6"
*.ES_14.app[0].io.destAddress = "ES_217"
*.ES_14.app[0].io.destPort = 27
*.ES_14.app[0].source.productionInterval = 2000us
*.ES_14.app[0].source.initialProductionOffset = 2000us
*.ES_14.app[0].source.packetLength = 957B
*.ES_14.app[1].display-name = "ats-p6"
*.ES_14.app[1].io.destAddress = "ES_35"
*.ES_14.app[1].io.destPort = 28
*.ES_14.app[1].source.productionInterval = 1000us
*.ES_14.app[1].source.initialProductionOffset = 1000us
*.ES_14.app[1].source.packetLength = 577B
*.ES_14.app[2].typename = "UdpSinkApp"
*.ES_14.app[2].io.localPort = 391
*.ES_15.app[0..1].typename = "UdpSourceApp"
*.ES_15.app[0].display-name = "ats-p4"
*.ES_15.app[0].io.destAddress = "ES_127"
*.ES_15.app[0].io.destPort = 29
*.ES_15.app[0].source.productionInterval = 500us
*.ES_15.app[0].source.initialProductionOffset = 500us
*.ES_15.app[0].source.packetLength = 986B
*.ES_15.app[1].display-name = "ats-p1"
*.ES_15.app[1].io.destAddress = "ES_77"
*.ES_15.app[1].io.destPort = 30
*.ES_15.app[1].source.productionInterval = 2000us
*.ES_15.app[1].source.initialProductionOffset = 2000us
*.ES_15.app[1].source.packetLength = 669B
*.ES_15.app[2..3].typename = "UdpSinkApp"
*.ES_15.app[2].io.localPort = 48
*.ES_15.app[3].io.localPort = 134
*.ES_16.app[0..1].typename = "UdpSourceApp"
*.ES_16.app[0].display-name = "ats-p3"
*.ES_16.app[0].io.destAddress = "ES_69"
*.ES_16.app[0].io.destPort = 31
*.ES_16.app[0].source.productionInterval = 500us
*.ES_16.app[0].source.initialProductionOffset = 500us
*.ES_16.app[0].source.packetLength = 635B
*.ES_16.app[1].display-name = "ats-p0"
*.ES_16.app[1].io.destAddress = "ES_214"
*.ES_16.app[1].io.destPort = 32
*.ES_16.app[1].source.productionInterval = 500us
*.ES_16.app[1].source.initialProductionOffset = 500us
*.ES_16.app[1].source.packetLength = 662B
*.ES_16.app[2..3].typename = "UdpSinkApp"
*.ES_16.app[2].io.localPort = 36
*.ES_16.app[3].io.localPort = 114
*.ES_17.app[0..1].typename = "UdpSourceApp"
*.ES_17.app[0].display-name = "ats-p0"
*.ES_17.app[0].io.destAddress = "ES_42"
*.ES_17.app[0].io.destPort = 33
*.ES_17.app[0].source.productionInterval = 2000us
*.ES_17.app[0].source.initialProductionOffset = 2000us
*.ES_17.app[0].source.packetLength = 620B
*.ES_17.app[1].display-name = "ats-p3"
*.ES_17.app[1].io.destAddress = "ES_152"
*.ES_17.app[1].io.destPort = 34
*.ES_17.app[1].source.productionInterval = 500us
*.ES_17.app[1].source.initialProductionOffset = 500us
*.ES_17.app[1].source.packetLength = 876B
*.ES_17.app[2..3].typename = "UdpSinkApp"
*.ES_17.app[2].io.localPort = 331
*.ES_17.app[3].io.localPort = 439
*.ES_18.app[0..1].typename = "UdpSourceApp"
*.ES_18.app[0].display-name = "ats-p7"
*.ES_18.app[0].io.destAddress = "ES_38"
*.ES_18.app[0].io.destPort = 35
*.ES_18.app[0].source.productionInterval = 1000us
*.ES_18.app[0].source.initialProductionOffset = 1000us
*.ES_18.app[0].source.packetLength = 546B
*.ES_18.app[1].display-name = "ats-p5"
*.ES_18.app[1].io.destAddress = "ES_16"
*.ES_18.app[1].io.destPort = 36
*.ES_18.app[1].source.productionInterval = 1000us
*.ES_18.app[1].source.initialProductionOffset = 1000us
*.ES_18.app[1].source.packetLength = 902B
*.ES_18.app[2..5].typename = "UdpSinkApp"
*.ES_18.app[2].io.localPort = 7
*.ES_18.app[3].io.localPort = 49
*.ES_18.app[4].io.localPort = 325
*.ES_18.app[5].io.localPort = 478
*.ES_19.app[0..1].typename = "UdpSourceApp"
*.ES_19.app[0].display-name = "ats-p3"
*.ES_19.app[0].io.destAddress = "ES_158"
*.ES_19.app[0].io.destPort = 37
*.ES_19.app[0].source.productionInterval = 2000us
*.ES_19.app[0].source.initialProductionOffset = 2000us
*.ES_19.app[0].source.packetLength = 624B
*.ES_19.app[1].display-name = "ats-p4"
*.ES_19.app[1].io.destAddress = "ES_158"
*.ES_19.app[1].io.destPort = 38
*.ES_19.app[1].source.productionInterval = 500us
*.ES_19.app[1].source.initialProductionOffset = 500us
*.ES_19.app[1].source.packetLength = 736B
*.ES_19.app[2..3].typename = "UdpSinkApp"
*.ES_19.app[2].io.localPort = 97
*.ES_19.app[3].io.localPort = 486
*.ES_20.app[0..1].typename = "UdpSourceApp"
*.ES_20.app[0].display-name = "ats-p1"
*.ES_20.app[0].io.destAddress = "ES_245"
*.ES_20.app[0].io.destPort = 39
*.ES_20.app[0].source.productionInterval = 2000us
*.ES_20.app[0].source.initialProductionOffset = 2000us
*.ES_20.app[0].source.packetLength = 955B
*.ES_20.app[1].display-name = "ats-p0"
*.ES_20.app[1].io.destAddress = "ES_59"
*.ES_20.app[1].io.destPort = 40
*.ES_20.app[1].source.productionInterval = 500us
*.ES_20.app[1].source.initialProductionOffset = 500us
*.ES_20.app[1].source.packetLength = 637B
*.ES_20.app[2..3].typename = "UdpSinkApp"
*.ES_20.app[2].io.localPort = 99
*.ES_20.app[3].io.localPort = 253
*.ES_21.app[0..1].typename = "UdpSourceApp"
*.ES_21.app[0].display-name = "ats-p1"
*.ES_21.app[0].io.destAddress = "ES_232"
*.ES_21.app[0].io.destPort = 41
*.ES_21.app[0].source.productionInterval = 1000us
*.ES_21.app[0].source.initialProductionOffset = 1000us
*.ES_21.app[0].source.packetLength = 879B
*.ES_21.app[1].display-name = "ats-p0"
*.ES_21.app[1].io.destAddress = "ES_208"
*.ES_21.app[1].io.destPort = 42
*.ES_21.app[1].source.productionInterval = 2000us
*.ES_21.app[1].source.initialProductionOffset = 2000us
*.ES_21.app[1].source.packetLength = 753B
*.ES_22.app[0..1].typename = "UdpSourceApp"
*.ES_22.app[0].display-name = "ats-p0"
*.ES_22.app[0].io.destAddress = "ES_151"
*.ES_22.app[0].io.destPort = 43
*.ES_22.app[0].source.productionInterval = 500us
*.ES_22.app[0].source.initialProductionOffset = 500us
*.ES_22.app[0].source.packetLength = 885B
*.ES_22.app[1].display-name = "ats-p2"
*.ES_22.app[1].io.destAddress = "ES_168"
*.ES_22.app[1].io.destPort = 44
*.ES_22.app[1].source.productionInterval = 1000us
*.ES_22.app[1].source.initialProductionOffset = 1000us
*.ES_22.app[1].source.packetLength = 875B
*.ES_23.app[0..1].typename = "UdpSourceApp"
*.ES_23.app[0].display-name = "ats-p5"
*.ES_23.app[0].io.destAddress = "ES_118"
*.ES_23.app[0].io.destPort = 45
*.ES_23.app[0].source.productionInterval = 500us
*.ES_23.app[0].source.initialProductionOffset = 500us
*.ES_23.app[0].source.packetLength = 754B
*.ES_23.app[1].display-name = "ats-p2"
*.ES_23.app[1].io.destAddress = "ES_182"
*.ES_23.app[1].io.destPort = 46
*.ES_23.app[1].source.productionInterval = 2000us
*.ES_23.app[1].source.initialProductionOffset = 2000us
*.ES_23.app[1].source.packetLength = 591B
*.ES_23.app[2..3].typename = "UdpSinkApp"
*.ES_23.app[2].io.localPort = 72
*.ES_23.app[3].io.localPort = 414
*.ES_24.app[0..1].typename = "UdpSourceApp"
*.ES_24.app[0].display-name = "ats-p6"
*.ES_24.app[0].io.destAddress = "ES_105"
*.ES_24.app[0].io.destPort = 47
*.ES_24.app[0].source.productionInterval = 2000us
*.ES_24.app[0].source.initialProductionOffset = 2000us
*.ES_24.app[0].source.packetLength = 816B
*.ES_24.app[1].display-name = "ats-p1"
*.ES_24.app[1].io.destAddress = "ES_15"
*.ES_24.app[1].io.destPort = 48
*.ES_24.app[1].source.productionInterval = 2000us
*.ES_24.app[1].source.initialProductionOffset = 2000us
*.ES_24.app[1].source.packetLength = 982B
*.ES_24.app[2].typename = "UdpSinkApp"
*.ES_24.app[2].io.localPort = 446
*.ES_25.app[0..1].typename = "UdpSourceApp"
*.ES_25.app[0].display-name = "ats-p4"
*.ES_25.app[0].io.destAddress = "ES_18"
*.ES_25.app[0].io.destPort = 49
*.ES_25.app[0].source.productionInterval = 2000us
*.ES_25.app[0].source.initialProductionOffset = 2000us
*.ES_25.app[0].source.packetLength = 994B
*.ES_25.app[1].display-name = "ats-p6"
*.ES_25.app[1].io.destAddress = "ES_146"
*.ES_25.app[1].io.destPort = 50
*.ES_25.app[1].source.productionInterval = 2000us
*.ES_25.app[1].source.initialProductionOffset = 2000us
*.ES_25.app[1].source.packetLength = 950B
*.ES_25.app[2].typename = "UdpSinkApp"
*.ES_25.app[2].io.localPort = 300
*.ES_26.app[0..1].typename = "UdpSourceApp"
*.ES_26.app[0].display-name = "ats-p4"
*.ES_26.app[0].io.destAddress = "ES_218"
*.ES_26.app[0].io.destPort = 51
*.ES_26.app[0].source.productionInterval = 1000us
*.ES_26.app[0].source.initialProductionOffset = 1000us
*.ES_26.app[0].source.packetLength = 658B
*.ES_26.app[1].display-name = "ats-p6"
*.ES_26.app[1].io.destAddress = "ES_151"
*.ES_26.app[1].io.destPort = 52
*.ES_26.app[1].source.productionInterval = 2000us
*.ES_26.app[1].source.initialProductionOffset = 2000us
*.ES_26.app[1].source.packetLength = 535B
*.ES_26.app[2..3].typename = "UdpSinkApp"
*.ES_26.app[2].io.localPort = 156
*.ES_26.app[3].io.localPort = 384
*.ES_27.app[0..1].typename = "UdpSourceApp"
*.ES_27.app[0].display-name = "ats-p5"
*.ES_27.app[0].io.destAddress = "ES_53"
*.ES_27.app[0].io.destPort = 53
*.ES_27.app[0].source.productionInterval = 500us
*.ES_27.app[0].source.initialProductionOffset = 500us
*.ES_27.app[0].source.packetLength = 818B
*.ES_27.app[1].display-name = "ats-p1"
*.ES_27.app[1].io.destAddress = "ES_143"
*.ES_27.app[1].io.destPort = 54
*.ES_27.app[1].source.productionInterval = 2000us
*.ES_27.app[1].source.initialProductionOffset = 2000us
*.ES_27.app[1].source.packetLength = 684B
*.ES_27.app[2..4].typename = "UdpSinkApp"
*.ES_27.app[2].io.localPort = 5
*.ES_27.app[3].io.localPort = 347
*.ES_27.app[4].io.localPort = 376
*.ES_28.app[0..1].typename = "UdpSourceApp"
*.ES_28.app[0].display-name = "ats-p4"
*.ES_28.app[0].io.destAddress = "ES_206"
*.ES_28.app[0].io.destPort = 55
*.ES_28.app[0].source.productionInterval = 2000us
*.ES_28.app[0].source.initialProductionOffset = 2000us
*.ES_28.app[0].source.packetLength = 988B
*.ES_28.app[1].display-name = "ats-p5"
*.ES_28.app[1].io.destAddress = "ES_54"
*.ES_28.app[1].io.destPort = 56
*.ES_28.app[1].source.productionInterval = 1000us
*.ES_28.app[1].source.initialProductionOffset = 1000us
*.ES_28.app[1].source.packetLength = 800B
*.ES_28.app[2..3].typename = "UdpSinkApp"
*.ES_28.app[2].io.localPort = 174
*.ES_28.app[3].io.localPort = 466
*.ES_29.app[0..1].typename = "UdpSourceApp"
*.ES_29.app[0].display-name = "ats-p2"
*.ES_29.app[0].io.destAddress = "ES_110"
*.ES_29.app[0].io.destPort = 57
*.ES_29.app[0].source.productionInterval = 1000us
*.ES_29.app[0].source.initialProductionOffset = 1000us
*.ES_29.app[0].source.packetLength = 640B
*.ES_29.app[1].display-name = "ats-p7"
*.ES_29.app[1].io.destAddress = "ES_208"
*.ES_29.app[1].io.destPort = 58
*.ES_29.app[1].source.productionInterval = 1000us
*.ES_29.app[1].source.initialProductionOffset = 1000us
*.ES_29.app[1].source.packetLength = 986B
*.ES_29.app[2..3].typename = "UdpSinkApp"
*.ES_29.app[2].io.localPort = 103
*.ES_29.app[3].io.localPort = 262
*.ES_30.app[0..1].typename = "UdpSourceApp"
*.ES_30.app[0].display-name = "ats-p4"
*.ES_30.app[0].io.destAddress = "ES_232"
*.ES_30.app[0].io.destPort = 59
*.ES_30.app[0].source.productionInterval = 1000us
*.ES_30.app[0].source.initialProductionOffset = 1000us
*.ES_30.app[0].source.packetLength = 931B
*.ES_30.app[1].display-name = "ats-p0"
*.ES_30.app[1].io.destAddress = "ES_54"
*.ES_30.app[1].io.destPort = 60
*.ES_30.app[1].source.productionInterval = 500us
*.ES_30.app[1].source.initialProductionOffset = 500us
*.ES_30.app[1].source.packetLength = 924B
*.ES_30.app[2..6].typename = "UdpSinkApp"
*.ES_30.app[2].io.localPort = 1
*.ES_30.app[3].io.localPort = 116
*.ES_30.app[4].io.localPort = 166
*.ES_30.app[5].io.localPort = 232
*.ES_30.app[6].io.localPort = 400
*.ES_31.app[0..1].typename = "UdpSourceApp"
*.ES_31.app[0].display-name = "ats-p3"
*.ES_31.app[0].io.destAddress = "ES_2"
*.ES_31.app[0].io.destPort = 61
*.ES_31.app[0].source.productionInterval = 500us
*.ES_31.app[0].source.initialProductionOffset = 500us
*.ES_31.app[0].source.packetLength = 841B
*.ES_31.app[1].display-name = "ats-p6"
*.ES_31.app[1].io.destAddress = "ES_193"
*.ES_31.app[1].io.destPort = 62
*.ES_31.app[1].source.productionInterval = 1000us
*.ES_31.app[1].source.initialProductionOffset = 1000us
*.ES_31.app[1].source.packetLength = 594B
*.ES_32.app[0..1].typename = "UdpSourceApp"
*.ES_32.app[0].display-name = "ats-p0"
*.ES_32.app[0].io.destAddress = "ES_46"
*.ES_32.app[0].io.destPort = 63
*.ES_32.app[0].source.productionInterval = 500us
*.ES_32.app[0].source.initialProductionOffset = 500us
*.ES_32.app[0].source.packetLength = 686B
*.ES_32.app[1].display-name = "ats-p2"
*.ES_32.app[1].io.destAddress = "ES_186"
*.ES_32.app[1].io.destPort = 64
*.ES_32.app[1].source.productionInterval = 2000us
*.ES_32.app[1].source.initialProductionOffset = 2000us
*.ES_32.app[1].source.packetLength = 576B
*.ES_32.app[2..4].typename = "UdpSinkApp"
*.ES_32.app[2].io.localPort = 85
*.ES_32.app[3].io.localPort = 337
*.ES_32.app[4].io.localPort = 381
*.ES_33.app[0..1].typename = "UdpSourceApp"
*.ES_33.app[0].display-name = "ats-p5"
*.ES_33.app[0].io.destAddress = "ES_39"
*.ES_33.app[0].io.destPort = 65
*.ES_33.app[0].source.productionInterval = 2000us
*.ES_33.app[0].source.initialProductionOffset = 2000us
*.ES_33.app[0].source.packetLength = 723B
*.ES_33.app[1].display-name = "ats-p6"
*.ES_33.app[1].io.destAddress = "ES_112"
*.ES_33.app[1].io.destPort = 66
*.ES_33.app[1].source.productionInterval = 2000us
*.ES_33.app[1].source.initialProductionOffset = 2000us
*.ES_33.app[1].source.packetLength = 540B
*.ES_33.app[2..3].typename = "UdpSinkApp"
*.ES_33.app[2].io.localPort = 137
*.ES_33.app[3].io.localPort = 493
*.ES_34.app[0..1].typename = "UdpSourceApp"
*.ES_34.app[0].display-name = "ats-p0"
*.ES_34.app[0].io.destAddress = "ES_230"
*.ES_34.app[0].io.destPort = 67
*.ES_34.app[0].source.productionInterval = 2000us
*.ES_34.app[0].source.initialProductionOffset = 2000us
*.ES_34.app[0].source.packetLength = 820B
*.ES_34.app[1].display-name = "ats-p7"
*.ES_34.app[1].io.destAddress = "ES_154"
*.ES_34.app[1].io.destPort = 68
*.ES_34.app[1].source.productionInterval = 1000us
*.ES_34.app[1].source.initialProductionOffset = 1000us
*.ES_34.app[1].source.packetLength = 582B
*.ES_35.app[0..1].typename = "UdpSourceApp"
*.ES_35.app[0].display-name = "ats-p5"
*.ES_35.app[0].io.destAddress = "ES_122"
*.ES_35.app[0].io.destPort = 69
*.ES_35.app[0].source.productionInterval = 2000us
*.ES_35.app[0].source.initialProductionOffset = 2000us
*.ES_35.app[0].source.packetLength = 648B
*.ES_35.app[1].display-name = "ats-p0"
*.ES_35.app[1].io.destAddress = "ES_8"
*.ES_35.app[1].io.destPort = 70
*.ES_35.app[1].source.productionInterval = 500us
*.ES_35.app[1].source.initialProductionOffset = 500us
*.ES_35.app[1].source.packetLength = 854B
*.ES_35.app[2..3].typename = "UdpSinkApp"
*.ES_35.app[2].io.localPort = 28
*.ES_35.app[3].io.localPort = 180
*.ES_36.app[0..1].typename = "UdpSourceApp"
*.ES_36.app[0].display-name = "ats-p4"
*.ES_36.app[0].io.destAddress = "ES_229"
*.ES_36.app[0].io.destPort = 71
*.ES_36.app[0].source.productionInterval = 500us
*.ES_36.app[0].source.initialProductionOffset = 500us
*.ES_36.app[0].source.packetLength = 607B
*.ES_36.app[1].display-name = "ats-p0"
*.ES_36.app[1].io.destAddress = "ES_23"
*.ES_36.app[1].io.destPort = 72
*.ES_36.app[1].source.productionInterval = 2000us
*.ES_36.app[1].source.initialProductionOffset = 2000us
*.ES_36.app[1].source.packetLength = 595B
*.ES_36.app[2].typename = "UdpSinkApp"
*.ES_36.app[2].io.localPort = 73
*.ES_37.app[0..1].typename = "UdpSourceApp"
*.ES_37.app[0].display-name = "ats-p7"
*.ES_37.app[0].io.destAddress = "ES_36"
*.ES_37.app[0].io.destPort = 73
*.ES_37.app[0].source.productionInterval = 2000us
*.ES_37.app[0].source.initialProductionOffset = 2000us
*.ES_37.app[0].source.packetLength = 547B
*.ES_37.app[1].display-name = "ats-p3"
*.ES_37.app[1].io.destAddress = "ES_237"
*.ES_37.app[1].io.destPort = 74
*.ES_37.app[1].source.productionInterval = 500us
*.ES_37.app[1].source.initialProductionOffset = 500us
*.ES_37.app[1].source.packetLength = 551B
*.ES_37.app[2..5].typename = "UdpSinkApp"
*.ES_37.app[2].io.localPort = 172
*.ES_37.app[3].io.localPort = 183
*.ES_37.app[4].io.localPort = 436