[General]
network = tsn.TSN_Network
sim-time-limit = 1.0s

# enable multiple canvas visualizers
*.visualizer.typename = "IntegratedMultiCanvasVisualizer"

# network route activity visualization
*.visualizer.numNetworkRouteVisualizers = 1
*.visualizer.networkRouteVisualizer[*].displayRoutes = true
*.visualizer.networkRouteVisualizer[0].packetFilter = "\"ats*\""
*.visualizer.networkRouteVisualizer[0].lineColor = "red1"

*.*.eth[*].bitrate = 1Gbps

# packet processing delay
*.*.bridging.directionReverser.delayer.typename = "PacketDelayer"
*.*.bridging.directionReverser.delayer.delay = 8us

*.ES_1.numApps = 4
*.ES_2.numApps = 4
*.ES_3.numApps = 2
*.ES_4.numApps = 6
*.ES_5.numApps = 4
*.ES_6.numApps = 3
*.ES_7.numApps = 5
*.ES_8.numApps = 2
*.ES_9.numApps = 5
*.ES_10.numApps = 6
*.ES_11.numApps = 6
*.ES_12.numApps = 6
*.ES_13.numApps = 4
*.ES_14.numApps = 5
*.ES_15.numApps = 3
*.ES_16.numApps = 3
*.ES_17.numApps = 4
*.ES_18.numApps = 3
*.ES_19.numApps = 3
*.ES_20.numApps = 5
*.ES_21.numApps = 6
*.ES_22.numApps = 3
*.ES_23.numApps = 6
*.ES_24.numApps = 5
*.ES_25.numApps = 7
*.ES_26.numApps = 3
*.ES_27.numApps = 4
*.ES_28.numApps = 3
*.ES_29.numApps = 2
*.ES_30.numApps = 3
*.ES_31.numApps = 5
*.ES_32.numApps = 4
*.ES_33.numApps = 4
*.ES_34.numApps = 3
*.ES_35.numApps = 4
*.ES_36.numApps = 5
*.ES_37.numApps = 3
*.ES_38.numApps = 4
*.ES_39.numApps = 5
*.ES_40.numApps = 2
*.ES_41.numApps = 6
*.ES_42.numApps = 3
*.ES_43.numApps = 2
*.ES_44.numApps = 3
*.ES_45.numApps = 2
*.ES_46.numApps = 3
*.ES_47.numApps = 3
*.ES_48.numApps = 5
*.ES_49.numApps = 5
*.ES_50.numApps = 4
*.ES_51.numApps = 2
*.ES_52.numApps = 7
*.ES_53.numApps = 3
*.ES_54.numApps = 5
*.ES_55.numApps = 4
*.ES_56.numApps = 3
*.ES_57.numApps = 5
*.ES_58.numApps = 5
*.ES_59.numApps = 4
*.ES_60.numApps = 2
*.ES_61.numApps = 3
*.ES_62.numApps = 3
*.ES_63.numApps = 5
*.ES_64.numApps = 6
*.ES_65.numApps = 3
*.ES_66.numApps = 3
*.ES_67.numApps = 5
*.ES_68.numApps = 5
*.ES_69.numApps = 3
*.ES_70.numApps = 3
*.ES_71.numApps = 4
*.ES_72.numApps = 5
*.ES_73.numApps = 2
*.ES_74.numApps = 4
*.ES_75.numApps = 3
*.ES_76.numApps = 2
*.ES_77.numApps = 2
*.ES_78.numApps = 3
*.ES_79.numApps = 2
*.ES_80.numApps = 4
*.ES_81.numApps = 3
*.ES_82.numApps = 2
*.ES_83.numApps = 3
*.ES_84.numApps = 3
*.ES_85.numApps = 4
*.ES_86.numApps = 2
*.ES_87.numApps = 4
*.ES_88.numApps = 4
*.ES_89.numApps = 2
*.ES_90.numApps = 4
*.ES_91.numApps = 2
*.ES_92.numApps = 3
*.ES_93.numApps = 8
*.ES_94.numApps = 7
*.ES_95.numApps = 4
*.ES_96.numApps = 3
*.ES_97.numApps = 4
*.ES_98.numApps = 5
*.ES_99.numApps = 3
*.ES_100.numApps = 3
*.ES_101.numApps = 4
*.ES_102.numApps = 3
*.ES_103.numApps = 5
*.ES_104.numApps = 3
*.ES_105.numApps = 4
*.ES_106.numApps = 4
*.ES_107.numApps = 2
*.ES_108.numApps = 3
*.ES_109.numApps = 7
*.ES_110.numApps = 4
*.ES_111.numApps = 4
*.ES_112.numApps = 4
*.ES_113.numApps = 4
*.ES_114.numApps = 2
*.ES_115.numApps = 2
*.ES_116.numApps = 3
*.ES_117.numApps = 2
*.ES_118.numApps = 5
*.ES_119.numApps = 3
*.ES_120.numApps = 4
*.ES_121.numApps = 2
*.ES_122.numApps = 5
*.ES_123.numApps = 4
*.ES_124.numApps = 3
*.ES_125.numApps = 5
*.ES_126.numApps = 3
*.ES_127.numApps = 6
*.ES_128.numApps = 4
*.ES_129.numApps = 6
*.ES_130.numApps = 4
*.ES_131.numApps = 5
*.ES_132.numApps = 6
*.ES_133.numApps = 5
*.ES_134.numApps = 3
*.ES_135.numApps = 2
*.ES_136.numApps = 4
*.ES_137.numApps = 4
*.ES_138.numApps = 3
*.ES_139.numApps = 4
*.ES_140.numApps = 3
*.ES_141.numApps = 4
*.ES_142.numApps = 3
*.ES_143.numApps = 4
*.ES_144.numApps = 3
*.ES_145.numApps = 4
*.ES_146.numApps = 2
*.ES_147.numApps = 2
*.ES_148.numApps = 2
*.ES_149.numApps = 2
*.ES_150.numApps = 3
*.ES_151.numApps = 4
*.ES_152.numApps = 3
*.ES_153.numApps = 6
*.ES_154.numApps = 4
*.ES_155.numApps = 3
*.ES_156.numApps = 3
*.ES_157.numApps = 2
*.ES_158.numApps = 6
*.ES_159.numApps = 2
*.ES_160.numApps = 4
*.ES_161.numApps = 3
*.ES_162.numApps = 3
*.ES_163.numApps = 3
*.ES_164.numApps = 3
*.ES_165.numApps = 5
*.ES_166.numApps = 4
*.ES_167.numApps = 6
*.ES_168.numApps = 2
*.ES_169.numApps = 3
*.ES_170.numApps = 5
*.ES_171.numApps = 4
*.ES_172.numApps = 4
*.ES_173.numApps = 4
*.ES_174.numApps = 4
*.ES_175.numApps = 4
*.ES_176.numApps = 3
*.ES_177.numApps = 5
*.ES_178.numApps = 2
*.ES_179.numApps = 4
*.ES_180.numApps = 4
*.ES_181.numApps = 4
*.ES_182.numApps = 4
*.ES_183.numApps = 6
*.ES_184.numApps = 4
*.ES_185.numApps = 4
*.ES_186.numApps = 7
*.ES_187.numApps = 4
*.ES_188.numApps = 5
*.ES_189.numApps = 6
*.ES_190.numApps = 2
*.ES_191.numApps = 3
*.ES_192.numApps = 4
*.ES_193.numApps = 3
*.ES_194.numApps = 2
*.ES_195.numApps = 3
*.ES_196.numApps = 2
*.ES_197.numApps = 5
*.ES_198.numApps = 3
*.ES_199.numApps = 3
*.ES_200.numApps = 3
*.ES_201.numApps = 3
*.ES_202.numApps = 4
*.ES_203.numApps = 4
*.ES_204.numApps = 4
*.ES_205.numApps = 4
*.ES_206.numApps = 2
*.ES_207.numApps = 4
*.ES_208.numApps = 3
*.ES_209.numApps = 5
*.ES_210.numApps = 3
*.ES_211.numApps = 2
*.ES_212.numApps = 3
*.ES_213.numApps = 4
*.ES_214.numApps = 4
*.ES_215.numApps = 2
*.ES_216.numApps = 3
*.ES_217.numApps = 6
*.ES_218.numApps = 3
*.ES_219.numApps = 4
*.ES_220.numApps = 3
*.ES_221.numApps = 4
*.ES_222.numApps = 4
*.ES_223.numApps = 4
*.ES_224.numApps = 5
*.ES_225.numApps = 5
*.ES_226.numApps = 3
*.ES_227.numApps = 3
*.ES_228.numApps = 6
*.ES_229.numApps = 3
*.ES_230.numApps = 4
*.ES_231.numApps = 3
*.ES_232.numApps = 2
*.ES_233.numApps = 4
*.ES_234.numApps = 4
*.ES_235.numApps = 3
*.ES_236.numApps = 3
*.ES_237.numApps = 6
*.ES_238.numApps = 4
*.ES_239.numApps = 4
*.ES_240.numApps = 3
*.ES_241.numApps = 2
*.ES_242.numApps = 3
*.ES_243.numApps = 7
*.ES_244.numApps = 3
*.ES_245.numApps = 7
*.ES_246.numApps = 6
*.ES_247.numApps = 5
*.ES_248.numApps = 7
*.ES_249.numApps = 3
*.ES_250.numApps = 6
*.ES_251.numApps = 3
*.ES_252.numApps = 3
*.ES_253.numApps = 3
*.ES_254.numApps = 8
*.ES_255.numApps = 4
*.ES_256.numApps = 2
*.ES_257.numApps = 5
*.ES_258.numApps = 4
*.ES_259.numApps = 4
*.ES_260.numApps = 3
*.ES_261.numApps = 3
*.ES_262.numApps = 2
*.ES_263.numApps = 4
*.ES_264.numApps = 6
*.ES_265.numApps = 6
*.ES_266.numApps = 3
*.ES_267.numApps = 3
*.ES_268.numApps = 6
*.ES_269.numApps = 6
*.ES_270.numApps = 4
*.ES_271.numApps = 6
*.ES_272.numApps = 2
*.ES_273.numApps = 7
*.ES_274.numApps = 4
*.ES_275.numApps = 5
*.ES_276.numApps = 4
*.ES_277.numApps = 3
*.ES_278.numApps = 3
*.ES_279.numApps = 3
*.ES_280.numApps = 3
*.ES_281.numApps = 3
*.ES_282.numApps = 5
*.ES_283.numApps = 3
*.ES_284.numApps = 3
*.ES_285.numApps = 4
*.ES_286.numApps = 7
*.ES_287.numApps = 6
*.ES_288.numApps = 2
*.ES_289.numApps = 4
*.ES_290.numApps = 4
*.ES_291.numApps = 5
*.ES_292.numApps = 4
*.ES_293.numApps = 2
*.ES_294.numApps = 3
*.ES_295.numApps = 4
*.ES_296.numApps = 4
*.ES_297.numApps = 5
*.ES_298.numApps = 4
*.ES_299.numApps = 4
*.ES_300.numApps = 4
*.ES_301.numApps = 2
*.ES_302.numApps = 6
*.ES_303.numApps = 6
*.ES_304.numApps = 5
*.ES_305.numApps = 4
*.ES_306.numApps = 5
*.ES_307.numApps = 6
*.ES_308.numApps = 5
*.ES_309.numApps = 5
*.ES_310.numApps = 3
*.ES_311.numApps = 3
*.ES_312.numApps = 3
*.ES_313.numApps = 3
*.ES_314.numApps = 6
*.ES_315.numApps = 3
*.ES_316.numApps = 2
*.ES_317.numApps = 4
*.ES_318.numApps = 6
*.ES_319.numApps = 4
*.ES_320.numApps = 3
*.ES_321.numApps = 4
*.ES_322.numApps = 3
*.ES_323.numApps = 2
*.ES_324.numApps = 4
*.ES_325.numApps = 4
*.ES_326.numApps = 2
*.ES_327.numApps = 3
*.ES_328.numApps = 6
*.ES_329.numApps = 4
*.ES_330.numApps = 5
*.ES_331.numApps = 2
*.ES_332.numApps = 6
*.ES_333.numApps = 5
*.ES_334.numApps = 5
*.ES_335.numApps = 5
*.ES_336.numApps = 4
*.ES_337.numApps = 4
*.ES_338.numApps = 4
*.ES_339.numApps = 2
*.ES_340.numApps = 3
*.ES_341.numApps = 3
*.ES_342.numApps = 5
*.ES_343.numApps = 5
*.ES_344.numApps = 5
*.ES_345.numApps = 4
*.ES_346.numApps = 4
*.ES_347.numApps = 7
*.ES_348.numApps = 4
*.ES_349.numApps = 4
*.ES_350.numApps = 4
*.ES_351.numApps = 2
*.ES_352.numApps = 4
*.ES_353.numApps = 3
*.ES_354.numApps = 5
*.ES_355.numApps = 2
*.ES_356.numApps = 4
*.ES_357.numApps = 4
*.ES_358.numApps = 3
*.ES_359.numApps = 2
*.ES_360.numApps = 3
*.ES_361.numApps = 4
*.ES_362.numApps = 3
*.ES_363.numApps = 4
*.ES_364.numApps = 3
*.ES_365.numApps = 5
*.ES_366.numApps = 2
*.ES_367.numApps = 6
*.ES_368.numApps = 3
*.ES_369.numApps = 3
*.ES_370.numApps = 4
*.ES_371.numApps = 2
*.ES_372.numApps = 5
*.ES_373.numApps = 2
*.ES_374.numApps = 2
*.ES_375.numApps = 6
*.ES_376.numApps = 6
*.ES_377.numApps = 3
*.ES_378.numApps = 3
*.ES_379.numApps = 4
*.ES_380.numApps = 4
*.ES_381.numApps = 4
*.ES_382.numApps = 5
*.ES_383.numApps = 6
*.ES_384.numApps = 4
*.ES_385.numApps = 6
*.ES_386.numApps = 2
*.ES_387.numApps = 5
*.ES_388.numApps = 4
*.ES_389.numApps = 3
*.ES_390.numApps = 3
*.ES_391.numApps = 3
*.ES_392.numApps = 3
*.ES_393.numApps = 6
*.ES_394.numApps = 3
*.ES_395.numApps = 6
*.ES_396.numApps = 4
*.ES_397.numApps = 7
*.ES_398.numApps = 4
*.ES_399.numApps = 3
*.ES_400.numApps = 3
*.ES_401.numApps = 7
*.ES_402.numApps = 4
*.ES_403.numApps = 5
*.ES_404.numApps = 5
*.ES_405.numApps = 2
*.ES_406.numApps = 3
*.ES_407.numApps = 3
*.ES_408.numApps = 4
*.ES_409.numApps = 3
*.ES_410.numApps = 6
*.ES_411.numApps = 6
*.ES_412.numApps = 5
*.ES_413.numApps = 4
*.ES_414.numApps = 3
*.ES_415.numApps = 3
*.ES_416.numApps = 3
*.ES_417.numApps = 6
*.ES_418.numApps = 5
*.ES_419.numApps = 5
*.ES_420.numApps = 5
*.ES_421.numApps = 3
*.ES_422.numApps = 4
*.ES_423.numApps = 4
*.ES_424.numApps = 5
*.ES_425.numApps = 6
*.ES_426.numApps = 3
*.ES_427.numApps = 6
*.ES_428.numApps = 2
*.ES_429.numApps = 4
*.ES_430.numApps = 2
*.ES_431.numApps = 5
*.ES_432.numApps = 2
*.ES_433.numApps = 4
*.ES_434.numApps = 4
*.ES_435.numApps = 4
*.ES_436.numApps = 2
*.ES_437.numApps = 5
*.ES_438.numApps = 7
*.ES_439.numApps = 3
*.ES_440.numApps = 5
*.ES_441.numApps = 3
*.ES_442.numApps = 7
*.ES_443.numApps = 5
*.ES_444.numApps = 2
*.ES_445.numApps = 5
*.ES_446.numApps = 6
*.ES_447.numApps = 5
*.ES_448.numApps = 3
*.ES_449.numApps = 4
*.ES_450.numApps = 3
*.ES_451.numApps = 6
*.ES_452.numApps = 5
*.ES_453.numApps = 4
*.ES_454.numApps = 4
*.ES_455.numApps = 6
*.ES_456.numApps = 6
*.ES_457.numApps = 4
*.ES_458.numApps = 5
*.ES_459.numApps = 4
*.ES_460.numApps = 4
*.ES_461.numApps = 2
*.ES_462.numApps = 6
*.ES_463.numApps = 4
*.ES_464.numApps = 3
*.ES_465.numApps = 4
*.ES_466.numApps = 3
*.ES_467.numApps = 3
*.ES_468.numApps = 6
*.ES_469.numApps = 2
*.ES_470.numApps = 6
*.ES_471.numApps = 6
*.ES_472.numApps = 6
*.ES_473.numApps = 3
*.ES_474.numApps = 2
*.ES_475.numApps = 4
*.ES_476.numApps = 3
*.ES_477.numApps = 3
*.ES_478.numApps = 6
*.ES_479.numApps = 6
*.ES_480.numApps = 5
*.ES_481.numApps = 5
*.ES_482.numApps = 4
*.ES_483.numApps = 2
*.ES_484.numApps = 6
*.ES_485.numApps = 8
*.ES_486.numApps = 4
*.ES_487.numApps = 3
*.ES_488.numApps = 3
*.ES_489.numApps = 3
*.ES_490.numApps = 3
*.ES_491.numApps = 2
*.ES_492.numApps = 8
*.ES_493.numApps = 5
*.ES_494.numApps = 4
*.ES_495.numApps = 3
*.ES_496.numApps = 3
*.ES_497.numApps = 5
*.ES_498.numApps = 4
*.ES_499.numApps = 4
*.ES_500.numApps = 8
*.ES_501.numApps = 3
*.ES_502.numApps = 2
*.ES_503.numApps = 4
*.ES_504.numApps = 3
*.ES_505.numApps = 3
*.ES_506.numApps = 5
*.ES_507.numApps = 3
*.ES_508.numApps = 2
*.ES_509.numApps = 5
*.ES_510.numApps = 7
*.ES_511.numApps = 6
*.ES_512.numApps = 4
*.ES_513.numApps = 3
*.ES_514.numApps = 6
*.ES_515.numApps = 3
*.ES_516.numApps = 5
*.ES_517.numApps = 4
*.ES_518.numApps = 6
*.ES_519.numApps = 3
*.ES_520.numApps = 2
*.ES_521.numApps = 3
*.ES_522.numApps = 5
*.ES_523.numApps = 5
*.ES_524.numApps = 6
*.ES_525.numApps = 5
*.ES_526.numApps = 5
*.ES_527.numApps = 3
*.ES_528.numApps = 3
*.ES_529.numApps = 4
*.ES_530.numApps = 2
*.ES_531.numApps = 4
*.ES_532.numApps = 5
*.ES_533.numApps = 5
*.ES_534.numApps = 3
*.ES_535.numApps = 3
*.ES_536.numApps = 3
*.ES_537.numApps = 4
*.ES_538.numApps = 9
*.ES_539.numApps = 3
*.ES_540.numApps = 5
*.ES_541.numApps = 6
*.ES_542.numApps = 2
*.ES_543.numApps = 3
*.ES_544.numApps = 6
*.ES_545.numApps = 5
*.ES_546.numApps = 3
*.ES_547.numApps = 3
*.ES_548.numApps = 3
*.ES_549.numApps = 3
*.ES_550.numApps = 3
*.ES_551.numApps = 5
*.ES_552.numApps = 2
*.ES_553.numApps = 5
*.ES_554.numApps = 3
*.ES_555.numApps = 6
*.ES_556.numApps = 4
*.ES_557.numApps = 4
*.ES_558.numApps = 4
*.ES_559.numApps = 3
*.ES_560.numApps = 3
*.ES_561.numApps = 4
*.ES_562.numApps = 3
*.ES_563.numApps = 2
*.ES_564.numApps = 4
*.ES_565.numApps = 4
*.ES_566.numApps = 4
*.ES_567.numApps = 3
*.ES_568.numApps = 3
*.ES_569.numApps = 7
*.ES_570.numApps = 3
*.ES_571.numApps = 5
*.ES_572.numApps = 7
*.ES_573.numApps = 5
*.ES_574.numApps = 5
*.ES_575.numApps = 4
*.ES_576.numApps = 3
*.ES_577.numApps = 3
*.ES_578.numApps = 3
*.ES_579.numApps = 4
*.ES_580.numApps = 4
*.ES_581.numApps = 4
*.ES_582.numApps = 3
*.ES_583.numApps = 4
*.ES_584.numApps = 2
*.ES_585.numApps = 5
*.ES_586.numApps = 2
*.ES_587.numApps = 4
*.ES_588.numApps = 6
*.ES_589.numApps = 3
*.ES_590.numApps = 6
*.ES_591.numApps = 3
*.ES_592.numApps = 2
*.ES_593.numApps = 2
*.ES_594.numApps = 3
*.ES_595.numApps = 3
*.ES_596.numApps = 4
*.ES_597.numApps = 6
*.ES_598.numApps = 4
*.ES_599.numApps = 3
*.ES_600.numApps = 4
*.ES_601.numApps = 4
*.ES_602.numApps = 3
*.ES_603.numApps = 3
*.ES_604.numApps = 7
*.ES_605.numApps = 5
*.ES_606.numApps = 4
*.ES_607.numApps = 5
*.ES_608.numApps = 5
*.ES_609.numApps = 2
*.ES_610.numApps = 3
*.ES_611.numApps = 7
*.ES_612.numApps = 5
*.ES_613.numApps = 3
*.ES_614.numApps = 5
*.ES_615.numApps = 3
*.ES_616.numApps = 5
*.ES_617.numApps = 4
*.ES_618.numApps = 5
*.ES_619.numApps = 5
*.ES_620.numApps = 5
*.ES_621.numApps = 6
*.ES_622.numApps = 2
*.ES_623.numApps = 3
*.ES_624.numApps = 3
*.ES_625.numApps = 4
*.ES_626.numApps = 3
*.ES_627.numApps = 2
*.ES_628.numApps = 4
*.ES_629.numApps = 4
*.ES_630.numApps = 4
*.ES_631.numApps = 3
*.ES_632.numApps = 6
*.ES_633.numApps = 4
*.ES_634.numApps = 2
*.ES_635.numApps = 5
*.ES_636.numApps = 4
*.ES_637.numApps = 6
*.ES_638.numApps = 4
*.ES_639.numApps = 4
*.ES_640.numApps = 2
*.ES_641.numApps = 5
*.ES_642.numApps = 3
*.ES_643.numApps = 2
*.ES_644.numApps = 2
*.ES_645.numApps = 3
*.ES_646.numApps = 4
*.ES_647.numApps = 3
*.ES_648.numApps = 5
*.ES_649.numApps = 7
*.ES_650.numApps = 4
*.ES_651.numApps = 4
*.ES_652.numApps = 4
*.ES_653.numApps = 2
*.ES_654.numApps = 5
*.ES_655.numApps = 4
*.ES_656.numApps = 4
*.ES_657.numApps = 3
*.ES_658.numApps = 3
*.ES_659.numApps = 6
*.ES_660.numApps = 5
*.ES_661.numApps = 6
*.ES_662.numApps = 5
*.ES_663.numApps = 4
*.ES_664.numApps = 5
*.ES_665.numApps = 2
*.ES_666.numApps = 4
*.ES_667.numApps = 3
*.ES_668.numApps = 5
*.ES_669.numApps = 4
*.ES_670.numApps = 4
*.ES_671.numApps = 4
*.ES_672.numApps = 5
*.ES_673.numApps = 3
*.ES_674.numApps = 3
*.ES_675.numApps = 2
*.ES_676.numApps = 10
*.ES_677.numApps = 3
*.ES_678.numApps = 7
*.ES_679.numApps = 6
*.ES_680.numApps = 2
*.ES_681.numApps = 5
*.ES_682.numApps = 5
*.ES_683.numApps = 3
*.ES_684.numApps = 4
*.ES_685.numApps = 5
*.ES_686.numApps = 4
*.ES_687.numApps = 4
*.ES_688.numApps = 3
*.ES_689.numApps = 5
*.ES_690.numApps = 5
*.ES_691.numApps = 3
*.ES_692.numApps = 3
*.ES_693.numApps = 4
*.ES_694.numApps = 6
*.ES_695.numApps = 5
*.ES_696.numApps = 3
*.ES_697.numApps = 5
*.ES_698.numApps = 3
*.ES_699.numApps = 3
*.ES_700.numApps = 2
*.ES_701.numApps = 4
*.ES_702.numApps = 3
*.ES_703.numApps = 6
*.ES_704.numApps = 6
*.ES_705.numApps = 7
*.ES_706.numApps = 3
*.ES_707.numApps = 5
*.ES_708.numApps = 4
*.ES_709.numApps = 3
*.ES_710.numApps = 6
*.ES_711.numApps = 3
*.ES_712.numApps = 4
*.ES_713.numApps = 2
*.ES_714.numApps = 4
*.ES_715.numApps = 6
*.ES_716.numApps = 4
*.ES_717.numApps = 3
*.ES_718.numApps = 4
*.ES_719.numApps = 5
*.ES_720.numApps = 6
*.ES_721.numApps = 6
*.ES_722.numApps = 5
*.ES_723.numApps = 4
*.ES_724.numApps = 2
*.ES_725.numApps = 4
*.ES_726.numApps = 5
*.ES_727.numApps = 3
*.ES_728.numApps = 2
*.ES_729.numApps = 2
*.ES_730.numApps = 6
*.ES_731.numApps = 3
*.ES_732.numApps = 2
*.ES_733.numApps = 6
*.ES_734.numApps = 6
*.ES_735.numApps = 9
*.ES_736.numApps = 3
*.ES_737.numApps = 5
*.ES_738.numApps = 4
*.ES_739.numApps = 6
*.ES_740.numApps = 4
*.ES_741.numApps = 3
*.ES_742.numApps = 6
*.ES_743.numApps = 2
*.ES_744.numApps = 6
*.ES_745.numApps = 3
*.ES_746.numApps = 4
*.ES_747.numApps = 3
*.ES_748.numApps = 3
*.ES_749.numApps = 3
*.ES_750.numApps = 5
*.ES_751.numApps = 5
*.ES_752.numApps = 2
*.ES_753.numApps = 5
*.ES_754.numApps = 3
*.ES_755.numApps = 2
*.ES_756.numApps = 4
*.ES_757.numApps = 3
*.ES_758.numApps = 3
*.ES_759.numApps = 4
*.ES_760.numApps = 5
*.ES_761.numApps = 2
*.ES_762.numApps = 3
*.ES_763.numApps = 4
*.ES_764.numApps = 2
*.ES_765.numApps = 6
*.ES_766.numApps = 3
*.ES_767.numApps = 4
*.ES_768.numApps = 3
*.ES_769.numApps = 4
*.ES_770.numApps = 5
*.ES_771.numApps = 3
*.ES_772.numApps = 3
*.ES_773.numApps = 4
*.ES_774.numApps = 2
*.ES_775.numApps = 3
*.ES_776.numApps = 4
*.ES_777.numApps = 4
*.ES_778.numApps = 6
*.ES_779.numApps = 5
*.ES_780.numApps = 5
*.ES_781.numApps = 4
*.ES_782.numApps = 4
*.ES_783.numApps = 5
*.ES_784.numApps = 3
*.ES_785.numApps = 3
*.ES_786.numApps = 4
*.ES_787.numApps = 4
*.ES_788.numApps = 4
*.ES_789.numApps = 3
*.ES_790.numApps = 3
*.ES_791.numApps = 5
*.ES_792.numApps = 5
*.ES_793.numApps = 3
*.ES_794.numApps = 4
*.ES_795.numApps = 5
*.ES_796.numApps = 3
*.ES_797.numApps = 4
*.ES_798.numApps = 4
*.ES_799.numApps = 3
*.ES_800.numApps = 3
*.ES_801.numApps = 5
*.ES_802.numApps = 5
*.ES_803.numApps = 4
*.ES_804.numApps = 5
*.ES_805.numApps = 5
*.ES_806.numApps = 4
*.ES_807.numApps = 3
*.ES_808.numApps = 5
*.ES_809.numApps = 4
*.ES_810.numApps = 3
*.ES_811.numApps = 2
*.ES_812.numApps = 3
*.ES_813.numApps = 3
*.ES_814.numApps = 5
*.ES_815.numApps = 5
*.ES_816.numApps = 4
*.ES_817.numApps = 2
*.ES_818.numApps = 2
*.ES_819.numApps = 4
*.ES_820.numApps = 3
*.ES_821.numApps = 4
*.ES_822.numApps = 5
*.ES_823.numApps = 4
*.ES_824.numApps = 2
*.ES_825.numApps = 5
*.ES_826.numApps = 3
*.ES_827.numApps = 2
*.ES_828.numApps = 5
*.ES_829.numApps = 2
*.ES_830.numApps = 5
*.ES_831.numApps = 2
*.ES_832.numApps = 4
*.ES_833.numApps = 2
*.ES_834.numApps = 5
*.ES_835.numApps = 3
*.ES_836.numApps = 9
*.ES_837.numApps = 4
*.ES_838.numApps = 4
*.ES_839.numApps = 3
*.ES_840.numApps = 2
*.ES_841.numApps = 3
*.ES_842.numApps = 2
*.ES_843.numApps = 2
*.ES_844.numApps = 3
*.ES_845.numApps = 5
*.ES_846.numApps = 5
*.ES_847.numApps = 4
*.ES_848.numApps = 6
*.ES_849.numApps = 4
*.ES_850.numApps = 5
*.ES_851.numApps = 3
*.ES_852.numApps = 2
*.ES_853.numApps = 6
*.ES_854.numApps = 3
*.ES_855.numApps = 4
*.ES_856.numApps = 5
*.ES_857.numApps = 3
*.ES_858.numApps = 5
*.ES_859.numApps = 3
*.ES_860.numApps = 4
*.ES_861.numApps = 3
*.ES_862.numApps = 6
*.ES_863.numApps = 4
*.ES_864.numApps = 6
*.ES_865.numApps = 4
*.ES_866.numApps = 3
*.ES_867.numApps = 4
*.ES_868.numApps = 4
*.ES_869.numApps = 2
*.ES_870.numApps = 3
*.ES_871.numApps = 3
*.ES_872.numApps = 2
*.ES_873.numApps = 3
*.ES_874.numApps = 3
*.ES_875.numApps = 7
*.ES_876.numApps = 6
*.ES_877.numApps = 4
*.ES_878.numApps = 7
*.ES_879.numApps = 4
*.ES_880.numApps = 3
*.ES_881.numApps = 4
*.ES_882.numApps = 4
*.ES_883.numApps = 5
*.ES_884.numApps = 2
*.ES_885.numApps = 2
*.ES_886.numApps = 2
*.ES_887.numApps = 4
*.ES_888.numApps = 4
*.ES_889.numApps = 5
*.ES_890.numApps = 3
*.ES_891.numApps = 4
*.ES_892.numApps = 2
*.ES_893.numApps = 4
*.ES_894.numApps = 3
*.ES_895.numApps = 4
*.ES_896.numApps = 2
*.ES_897.numApps = 3
*.ES_898.numApps = 3
*.ES_899.numApps = 3
*.ES_900.numApps = 3
*.ES_901.numApps = 3
*.ES_902.numApps = 5
*.ES_903.numApps = 3
*.ES_904.numApps = 4
*.ES_905.numApps = 5
*.ES_906.numApps = 4
*.ES_907.numApps = 6
*.ES_908.numApps = 6
*.ES_909.numApps = 4
*.ES_910.numApps = 4
*.ES_911.numApps = 2
*.ES_912.numApps = 6
*.ES_913.numApps = 7
*.ES_914.numApps = 4
*.ES_915.numApps = 3
*.ES_916.numApps = 4
*.ES_917.numApps = 5
*.ES_918.numApps = 3
*.ES_919.numApps = 9
*.ES_920.numApps = 3
*.ES_921.numApps = 4
*.ES_922.numApps = 4
*.ES_923.numApps = 4
*.ES_924.numApps = 3
*.ES_925.numApps = 4
*.ES_926.numApps = 4
*.ES_927.numApps = 4
*.ES_928.numApps = 5
*.ES_929.numApps = 4
*.ES_930.numApps = 5
*.ES_931.numApps = 7
*.ES_932.numApps = 4
*.ES_933.numApps = 4
*.ES_934.numApps = 5
*.ES_935.numApps = 5
*.ES_936.numApps = 4
*.ES_937.numApps = 6
*.ES_938.numApps = 5
*.ES_939.numApps = 3
*.ES_940.numApps = 3
*.ES_941.numApps = 3
*.ES_942.numApps = 3
*.ES_943.numApps = 3
*.ES_944.numApps = 4
*.ES_945.numApps = 3
*.ES_946.numApps = 4
*.ES_947.numApps = 5
*.ES_948.numApps = 3
*.ES_949.numApps = 3
*.ES_950.numApps = 4
*.ES_951.numApps = 2
*.ES_952.numApps = 2
*.ES_953.numApps = 4
*.ES_954.numApps = 6
*.ES_955.numApps = 2
*.ES_956.numApps = 4
*.ES_957.numApps = 3
*.ES_958.numApps = 3
*.ES_959.numApps = 3
*.ES_960.numApps = 7
*.ES_961.numApps = 7
*.ES_962.numApps = 6
*.ES_963.numApps = 5
*.ES_964.numApps = 3
*.ES_965.numApps = 3
*.ES_966.numApps = 2
*.ES_967.numApps = 3
*.ES_968.numApps = 3
*.ES_969.numApps = 3
*.ES_970.numApps = 5
*.ES_971.numApps = 5
*.ES_972.numApps = 2
*.ES_973.numApps = 2
*.ES_974.numApps = 3
*.ES_975.numApps = 2
*.ES_976.numApps = 3
*.ES_977.numApps = 5
*.ES_978.numApps = 3
*.ES_979.numApps = 3
*.ES_980.numApps = 3
*.ES_981.numApps = 3
*.ES_982.numApps = 5
*.ES_983.numApps = 6
*.ES_984.numApps = 5
*.ES_985.numApps = 5
*.ES_986.numApps = 4
*.ES_987.numApps = 3
*.ES_988.numApps = 3
*.ES_989.numApps = 3
*.ES_990.numApps = 3
*.ES_991.numApps = 6
*.ES_992.numApps = 5
*.ES_993.numApps = 6
*.ES_994.numApps = 4
*.ES_995.numApps = 4
*.ES_996.numApps = 6
*.ES_997.numApps = 4
*.ES_998.numApps = 7
*.ES_999.numApps = 3
*.ES_1000.numApps = 3
*.ES_1001.numApps = 4
*.ES_1002.numApps = 2
*.ES_1003.numApps = 5
*.ES_1004.numApps = 2
*.ES_1005.numApps = 3
*.ES_1006.numApps = 3
*.ES_1007.numApps = 2
*.ES_1008.numApps = 2
*.ES_1009.numApps = 3
*.ES_1010.numApps = 3
*.ES_1011.numApps = 2
*.ES_1012.numApps = 4
*.ES_1013.numApps = 6
*.ES_1014.numApps = 7
*.ES_1015.numApps = 4
*.ES_1016.numApps = 4
*.ES_1017.numApps = 3
*.ES_1018.numApps = 5
*.ES_1019.numApps = 4
*.ES_1020.numApps = 3
*.ES_1021.numApps = 3
*.ES_1022.numApps = 4
*.ES_1023.numApps = 4
*.ES_1024.numApps = 2
*.ES_1025.numApps = 2
*.ES_1026.numApps = 5
*.ES_1027.numApps = 5
*.ES_1028.numApps = 5
*.ES_1029.numApps = 3
*.ES_1030.numApps = 4
*.ES_1031.numApps = 5
*.ES_1032.numApps = 4
*.ES_1033.numApps = 3
*.ES_1034.numApps = 3
*.ES_1035.numApps = 4
*.ES_1036.numApps = 7
*.ES_1037.numApps = 5
*.ES_1038.numApps = 4
*.ES_1039.numApps = 5
*.ES_1040.numApps = 5
*.ES_1041.numApps = 4
*.ES_1042.numApps = 4
*.ES_1043.numApps = 5
*.ES_1044.numApps = 4
*.ES_1045.numApps = 3
*.ES_1046.numApps = 3
*.ES_1047.numApps = 3
*.ES_1048.numApps = 4
*.ES_1049.numApps = 3
*.ES_1050.numApps = 5
*.ES_1051.numApps = 3
*.ES_1052.numApps = 5
*.ES_1053.numApps = 4
*.ES_1054.numApps = 3
*.ES_1055.numApps = 5
*.ES_1056.numApps = 6
*.ES_1057.numApps = 5
*.ES_1058.numApps = 2
*.ES_1059.numApps = 2
*.ES_1060.numApps = 4
*.ES_1061.numApps = 5
*.ES_1062.numApps = 3
*.ES_1063.numApps = 3
*.ES_1064.numApps = 5
*.ES_1065.numApps = 3
*.ES_1066.numApps = 4
*.ES_1067.numApps = 3
*.ES_1068.numApps = 3
*.ES_1069.numApps = 2
*.ES_1070.numApps = 3
*.ES_1071.numApps = 3
*.ES_1072.numApps = 5
*.ES_1073.numApps = 3
*.ES_1074.numApps = 5
*.ES_1075.numApps = 2
*.ES_1076.numApps = 2
*.ES_1077.numApps = 4
*.ES_1078.numApps = 3
*.ES_1079.numApps = 5
*.ES_1080.numApps = 7
*.ES_1081.numApps = 5
*.ES_1082.numApps = 5
*.ES_1083.numApps = 2
*.ES_1084.numApps = 2
*.ES_1085.numApps = 7
*.ES_1086.numApps = 4
*.ES_1087.numApps = 4
*.ES_1088.numApps = 2
*.ES_1089.numApps = 4
*.ES_1090.numApps = 3
*.ES_1091.numApps = 3
*.ES_1092.numApps = 4
*.ES_1093.numApps = 4
*.ES_1094.numApps = 5
*.ES_1095.numApps = 4
*.ES_1096.numApps = 5
*.ES_1097.numApps = 3
*.ES_1098.numApps = 3
*.ES_1099.numApps = 4
*.ES_1100.numApps = 2
*.ES_1101.numApps = 5
*.ES_1102.numApps = 8
*.ES_1103.numApps = 3
*.ES_1104.numApps = 2
*.ES_1105.numApps = 4
*.ES_1106.numApps = 7
*.ES_1107.numApps = 3
*.ES_1108.numApps = 5
*.ES_1109.numApps = 3
*.ES_1110.numApps = 7
*.ES_1111.numApps = 2
*.ES_1112.numApps = 4
*.ES_1113.numApps = 6
*.ES_1114.numApps = 3
*.ES_1115.numApps = 5
*.ES_1116.numApps = 4
*.ES_1117.numApps = 4
*.ES_1118.numApps = 4
*.ES_1119.numApps = 4
*.ES_1120.numApps = 3
*.ES_1121.numApps = 3
*.ES_1122.numApps = 2
*.ES_1123.numApps = 2
*.ES_1124.numApps = 4
*.ES_1125.numApps = 7
*.ES_1126.numApps = 5
*.ES_1127.numApps = 2
*.ES_1128.numApps = 4
*.ES_1129.numApps = 4
*.ES_1130.numApps = 3
*.ES_1131.numApps = 3
*.ES_1132.numApps = 4
*.ES_1133.numApps = 2
*.ES_1134.numApps = 4
*.ES_1135.numApps = 3
*.ES_1136.numApps = 5
*.ES_1137.numApps = 3
*.ES_1138.numApps = 5
*.ES_1139.numApps = 6
*.ES_1140.numApps = 8
*.ES_1141.numApps = 3
*.ES_1142.numApps = 4
*.ES_1143.numApps = 3
*.ES_1144.numApps = 4
*.ES_1145.numApps = 4
*.ES_1146.numApps = 5
*.ES_1147.numApps = 5
*.ES_1148.numApps = 2
*.ES_1149.numApps = 3
*.ES_1150.numApps = 2
*.ES_1151.numApps = 8
*.ES_1152.numApps = 4
*.ES_1153.numApps = 6
*.ES_1154.numApps = 3
*.ES_1155.numApps = 4
*.ES_1156.numApps = 4
*.ES_1157.numApps = 3
*.ES_1158.numApps = 4
*.ES_1159.numApps = 6
*.ES_1160.numApps = 2
*.ES_1161.numApps = 3
*.ES_1162.numApps = 3
*.ES_1163.numApps = 2
*.ES_1164.numApps = 5
*.ES_1165.numApps = 3
*.ES_1166.numApps = 2
*.ES_1167.numApps = 3
*.ES_1168.numApps = 5
*.ES_1169.numApps = 5
*.ES_1170.numApps = 3
*.ES_1171.numApps = 3
*.ES_1172.numApps = 3
*.ES_1173.numApps = 5
*.ES_1174.numApps = 2
*.ES_1175.numApps = 5
*.ES_1176.numApps = 5
*.ES_1177.numApps = 4
*.ES_1178.numApps = 4
*.ES_1179.numApps = 6
*.ES_1180.numApps = 5
*.ES_1181.numApps = 5
*.ES_1182.numApps = 6
*.ES_1183.numApps = 4
*.ES_1184.numApps = 3
*.ES_1185.numApps = 4
*.ES_1186.numApps = 4
*.ES_1187.numApps = 3
*.ES_1188.numApps = 2
*.ES_1189.numApps = 4
*.ES_1190.numApps = 8
*.ES_1191.numApps = 4
*.ES_1192.numApps = 3
*.ES_1193.numApps = 3
*.ES_1194.numApps = 5
*.ES_1195.numApps = 4
*.ES_1196.numApps = 3
*.ES_1197.numApps = 7
*.ES_1198.numApps = 6
*.ES_1199.numApps = 4
*.ES_1200.numApps = 7
*.ES_1201.numApps = 3
*.ES_1202.numApps = 4
*.ES_1203.numApps = 4
*.ES_1204.numApps = 3
*.ES_1205.numApps = 3
*.ES_1206.numApps = 3
*.ES_1207.numApps = 2
*.ES_1208.numApps = 5
*.ES_1209.numApps = 4
*.ES_1210.numApps = 2
*.ES_1211.numApps = 3
*.ES_1212.numApps = 6
*.ES_1213.numApps = 4
*.ES_1214.numApps = 4
*.ES_1215.numApps = 4
*.ES_1216.numApps = 3
*.ES_1217.numApps = 3
*.ES_1218.numApps = 6
*.ES_1219.numApps = 4
*.ES_1220.numApps = 3
*.ES_1221.numApps = 2
*.ES_1222.numApps = 3
*.ES_1223.numApps = 7
*.ES_1224.numApps = 4
*.ES_1225.numApps = 3
*.ES_1226.numApps = 2
*.ES_1227.numApps = 3
*.ES_1228.numApps = 4
*.ES_1229.numApps = 7
*.ES_1230.numApps = 3
*.ES_1231.numApps = 2
*.ES_1232.numApps = 3
*.ES_1233.numApps = 5
*.ES_1234.numApps = 3
*.ES_1235.numApps = 3
*.ES_1236.numApps = 6
*.ES_1237.numApps = 3
*.ES_1238.numApps = 4
*.ES_1239.numApps = 4
*.ES_1240.numApps = 4
*.ES_1241.numApps = 3
*.ES_1242.numApps = 5
*.ES_1243.numApps = 3
*.ES_1244.numApps = 4
*.ES_1245.numApps = 3
*.ES_1246.numApps = 4
*.ES_1247.numApps = 4
*.ES_1248.numApps = 4
*.ES_1249.numApps = 2
*.ES_1250.numApps = 6
*.ES_1251.numApps = 5
*.ES_1252.numApps = 5
*.ES_1253.numApps = 7
*.ES_1254.numApps = 4
*.ES_1255.numApps = 6
*.ES_1256.numApps = 2
*.ES_1257.numApps = 2
*.ES_1258.numApps = 2
*.ES_1259.numApps = 7
*.ES_1260.numApps = 4
*.ES_1261.numApps = 8
*.ES_1262.numApps = 5
*.ES_1263.numApps = 4
*.ES_1264.numApps = 4
*.ES_1265.numApps = 3
*.ES_1266.numApps = 3
*.ES_1267.numApps = 4
*.ES_1268.numApps = 2
*.ES_1269.numApps = 3
*.ES_1270.numApps = 3
*.ES_1271.numApps = 2
*.ES_1272.numApps = 3
*.ES_1273.numApps = 4
*.ES_1274.numApps = 5
*.ES_1275.numApps = 3
*.ES_1276.numApps = 3
*.ES_1277.numApps = 6
*.ES_1278.numApps = 6
*.ES_1279.numApps = 3
*.ES_1280.numApps = 3
*.ES_1281.numApps = 4
*.ES_1282.numApps = 4
*.ES_1283.numApps = 4
*.ES_1284.numApps = 4
*.ES_1285.numApps = 5
*.ES_1286.numApps = 2
*.ES_1287.numApps = 5
*.ES_1288.numApps = 6
*.ES_1289.numApps = 8
*.ES_1290.numApps = 3
*.ES_1291.numApps = 2
*.ES_1292.numApps = 3
*.ES_1293.numApps = 6
*.ES_1294.numApps = 3
*.ES_1295.numApps = 6
*.ES_1296.numApps = 4
*.ES_1297.numApps = 5
*.ES_1298.numApps = 3
*.ES_1299.numApps = 2
*.ES_1300.numApps = 4
*.ES_1301.numApps = 2
*.ES_1302.numApps = 3
*.ES_1303.numApps = 5
*.ES_1304.numApps = 6
*.ES_1305.numApps = 4
*.ES_1306.numApps = 3
*.ES_1307.numApps = 4
*.ES_1308.numApps = 5
*.ES_1309.numApps = 3
*.ES_1310.numApps = 4
*.ES_1311.numApps = 2
*.ES_1312.numApps = 4
*.ES_1313.numApps = 4
*.ES_1314.numApps = 4
*.ES_1315.numApps = 3
*.ES_1316.numApps = 4
*.ES_1317.numApps = 5
*.ES_1318.numApps = 2
*.ES_1319.numApps = 2
*.ES_1320.numApps = 4
*.ES_1321.numApps = 3
*.ES_1322.numApps = 5
*.ES_1323.numApps = 5
*.ES_1324.numApps = 3
*.ES_1325.numApps = 5
*.ES_1326.numApps = 2
*.ES_1327.numApps = 4
*.ES_1328.numApps = 3
*.ES_1329.numApps = 3
*.ES_1330.numApps = 5
*.ES_1331.numApps = 7
*.ES_1332.numApps = 3
*.ES_1333.numApps = 3
*.ES_1334.numApps = 2
*.ES_1335.numApps = 2
*.ES_1336.numApps = 4
*.ES_1337.numApps = 3
*.ES_1338.numApps = 3
*.ES_1339.numApps = 6
*.ES_1340.numApps = 4
*.ES_1341.numApps = 4
*.ES_1342.numApps = 3
*.ES_1343.numApps = 4
*.ES_1344.numApps = 3
*.ES_1345.numApps = 4
*.ES_1346.numApps = 4
*.ES_1347.numApps = 3
*.ES_1348.numApps = 5
*.ES_1349.numApps = 3
*.ES_1350.numApps = 5
*.ES_1351.numApps = 7
*.ES_1352.numApps = 3
*.ES_1353.numApps = 5
*.ES_1354.numApps = 4
*.ES_1355.numApps = 5
*.ES_1356.numApps = 5
*.ES_1357.numApps = 2
*.ES_1358.numApps = 5
*.ES_1359.numApps = 4
*.ES_1360.numApps = 4
*.ES_1361.numApps = 3
*.ES_1362.numApps = 7
*.ES_1363.numApps = 4
*.ES_1364.numApps = 4
*.ES_1365.numApps = 4
*.ES_1366.numApps = 5
*.ES_1367.numApps = 3
*.ES_1368.numApps = 4
*.ES_1369.numApps = 4
*.ES_1370.numApps = 4
*.ES_1371.numApps = 4
*.ES_1372.numApps = 4
*.ES_1373.numApps = 4
*.ES_1374.numApps = 3
*.ES_1375.numApps = 6
*.ES_1376.numApps = 5
*.ES_1377.numApps = 5
*.ES_1378.numApps = 3
*.ES_1379.numApps = 3
*.ES_1380.numApps = 3
*.ES_1381.numApps = 4
*.ES_1382.numApps = 3
*.ES_1383.numApps = 5
*.ES_1384.numApps = 3
*.ES_1385.numApps = 5
*.ES_1386.numApps = 2