[General]
network = tsn.TSN_Network
sim-time-limit = 1.0s

# enable multiple canvas visualizers
*.visualizer.typename = "IntegratedMultiCanvasVisualizer"

# network route activity visualization
*.visualizer.numNetworkRouteVisualizers = 1
*.visualizer.networkRouteVisualizer[*].displayRoutes = true
*.visualizer.networkRouteVisualizer[0].packetFilter = "\"ats*\""
*.visualizer.networkRouteVisualizer[0].lineColor = "red1"

*.*.eth[*].bitrate = 1Gbps

# packet processing delay
*.*.bridging.directionReverser.delayer.typename = "PacketDelayer"
*.*.bridging.directionReverser.delayer.delay = 8us

*.ES_1.numApps = 4
*.ES_2.numApps = 5
*.ES_3.numApps = 6
*.ES_4.numApps = 5
*.ES_5.numApps = 5
*.ES_6.numApps = 3
*.ES_7.numApps = 3
*.ES_8.numApps = 3
*.ES_9.numApps = 6
*.ES_10.numApps = 4
*.ES_11.numApps = 4
*.ES_12.numApps = 3
*.ES_13.numApps = 4
*.ES_14.numApps = 3
*.ES_15.numApps = 6
*.ES_16.numApps = 3
*.ES_17.numApps = 4
*.ES_18.numApps = 2
*.ES_19.numApps = 3
*.ES_20.numApps = 3
*.ES_21.numApps = 2
*.ES_22.numApps = 4
*.ES_23.numApps = 5
*.ES_24.numApps = 4
*.ES_25.numApps = 5
*.ES_26.numApps = 4
*.ES_27.numApps = 4
*.ES_28.numApps = 4
*.ES_29.numApps = 3
*.ES_30.numApps = 3
*.ES_31.numApps = 6
*.ES_32.numApps = 6
*.ES_33.numApps = 5
*.ES_34.numApps = 4
*.ES_35.numApps = 4
*.ES_36.numApps = 3
*.ES_37.numApps = 3
*.ES_38.numApps = 2
*.ES_39.numApps = 3
*.ES_40.numApps = 2
*.ES_41.numApps = 3
*.ES_42.numApps = 2
*.ES_43.numApps = 4
*.ES_44.numApps = 4
*.ES_45.numApps = 4
*.ES_46.numApps = 3
*.ES_47.numApps = 6
*.ES_48.numApps = 4
*.ES_49.numApps = 3
*.ES_50.numApps = 3
*.ES_51.numApps = 4
*.ES_52.numApps = 3
*.ES_53.numApps = 4
*.ES_54.numApps = 3
*.ES_55.numApps = 4
*.ES_56.numApps = 2
*.ES_57.numApps = 3
*.ES_58.numApps = 6
*.ES_59.numApps = 6
*.ES_60.numApps = 2
*.ES_61.numApps = 4
*.ES_62.numApps = 7
*.ES_63.numApps = 2
*.ES_64.numApps = 3
*.ES_65.numApps = 2
*.ES_66.numApps = 3
*.ES_67.numApps = 6
*.ES_68.numApps = 3
*.ES_69.numApps = 3
*.ES_70.numApps = 4
*.ES_71.numApps = 3
*.ES_72.numApps = 4
*.ES_73.numApps = 2
*.ES_74.numApps = 3
*.ES_75.numApps = 3
*.ES_76.numApps = 2
*.ES_77.numApps = 4
*.ES_78.numApps = 6
*.ES_79.numApps = 5
*.ES_80.numApps = 2
*.ES_81.numApps = 2
*.ES_82.numApps = 4
*.ES_83.numApps = 3
*.ES_84.numApps = 6
*.ES_85.numApps = 4
*.ES_86.numApps = 3
*.ES_87.numApps = 2
*.ES_88.numApps = 5
*.ES_89.numApps = 6
*.ES_90.numApps = 4
*.ES_91.numApps = 5
*.ES_92.numApps = 4
*.ES_93.numApps = 4
*.ES_94.numApps = 2
*.ES_95.numApps = 6
*.ES_96.numApps = 3
*.ES_97.numApps = 3
*.ES_98.numApps = 7
*.ES_99.numApps = 3
*.ES_100.numApps = 4
*.ES_101.numApps = 4
*.ES_102.numApps = 4
*.ES_103.numApps = 5
*.ES_104.numApps = 4
*.ES_105.numApps = 5
*.ES_106.numApps = 4
*.ES_107.numApps = 4
*.ES_108.numApps = 3
*.ES_109.numApps = 3
*.ES_110.numApps = 2
*.ES_111.numApps = 5
*.ES_112.numApps = 4
*.ES_113.numApps = 4
*.ES_114.numApps = 3
*.ES_115.numApps = 4
*.ES_116.numApps = 4
*.ES_117.numApps = 3
*.ES_118.numApps = 2
*.ES_119.numApps = 3
*.ES_120.numApps = 2
*.ES_121.numApps = 4
*.ES_122.numApps = 3
*.ES_123.numApps = 3
*.ES_124.numApps = 5
*.ES_125.numApps = 6
*.ES_126.numApps = 5
*.ES_127.numApps = 5
*.ES_128.numApps = 4
*.ES_129.numApps = 4
*.ES_130.numApps = 4
*.ES_131.numApps = 2
*.ES_132.numApps = 5
*.ES_133.numApps = 5
*.ES_134.numApps = 2
*.ES_135.numApps = 6
*.ES_136.numApps = 4
*.ES_137.numApps = 6
*.ES_138.numApps = 4
*.ES_139.numApps = 4
*.ES_140.numApps = 6
*.ES_141.numApps = 6
*.ES_142.numApps = 5
*.ES_143.numApps = 3
*.ES_144.numApps = 5
*.ES_145.numApps = 4
*.ES_146.numApps = 3
*.ES_147.numApps = 4
*.ES_148.numApps = 6
*.ES_149.numApps = 4
*.ES_150.numApps = 2
*.ES_151.numApps = 4
*.ES_152.numApps = 5
*.ES_153.numApps = 9
*.ES_154.numApps = 5
*.ES_155.numApps = 4
*.ES_156.numApps = 5
*.ES_157.numApps = 3
*.ES_158.numApps = 9
*.ES_159.numApps = 3
*.ES_160.numApps = 5
*.ES_161.numApps = 5
*.ES_162.numApps = 6
*.ES_163.numApps = 2
*.ES_164.numApps = 4
*.ES_165.numApps = 4
*.ES_166.numApps = 3
*.ES_167.numApps = 3
*.ES_168.numApps = 6
*.ES_169.numApps = 2
*.ES_170.numApps = 2
*.ES_171.numApps = 6
*.ES_172.numApps = 4
*.ES_173.numApps = 4
*.ES_174.numApps = 3
*.ES_175.numApps = 3
*.ES_176.numApps = 6
*.ES_177.numApps = 4
*.ES_178.numApps = 3
*.ES_179.numApps = 2
*.ES_180.numApps = 5
*.ES_181.numApps = 5
*.ES_182.numApps = 4
*.ES_183.numApps = 5
*.ES_184.numApps = 3
*.ES_185.numApps = 3
*.ES_186.numApps = 6
*.ES_187.numApps = 4
*.ES_188.numApps = 5
*.ES_189.numApps = 3
*.ES_190.numApps = 7
*.ES_191.numApps = 3
*.ES_192.numApps = 3
*.ES_193.numApps = 4
*.ES_194.numApps = 3
*.ES_195.numApps = 6
*.ES_196.numApps = 3
*.ES_197.numApps = 6
*.ES_198.numApps = 6
*.ES_199.numApps = 3
*.ES_200.numApps = 3
*.ES_201.numApps = 5
*.ES_202.numApps = 5
*.ES_203.numApps = 5
*.ES_204.numApps = 5
*.ES_205.numApps = 4
*.ES_206.numApps = 5
*.ES_207.numApps = 3
*.ES_208.numApps = 4
*.ES_209.numApps = 3
*.ES_210.numApps = 7
*.ES_211.numApps = 3
*.ES_212.numApps = 6
*.ES_213.numApps = 3
*.ES_214.numApps = 5
*.ES_215.numApps = 4
*.ES_216.numApps = 4
*.ES_217.numApps = 2
*.ES_218.numApps = 4
*.ES_219.numApps = 2
*.ES_220.numApps = 7
*.ES_221.numApps = 6
*.ES_222.numApps = 6
*.ES_223.numApps = 2
*.ES_224.numApps = 7
*.ES_225.numApps = 3
*.ES_226.numApps = 6
*.ES_227.numApps = 3
*.ES_228.numApps = 2
*.ES_229.numApps = 4
*.ES_230.numApps = 5
*.ES_231.numApps = 3
*.ES_232.numApps = 3
*.ES_233.numApps = 7
*.ES_234.numApps = 3
*.ES_235.numApps = 4
*.ES_236.numApps = 3
*.ES_237.numApps = 3
*.ES_238.numApps = 4
*.ES_239.numApps = 6
*.ES_240.numApps = 3
*.ES_241.numApps = 4
*.ES_242.numApps = 3
*.ES_243.numApps = 3
*.ES_244.numApps = 3
*.ES_245.numApps = 8
*.ES_246.numApps = 4
*.ES_247.numApps = 2
*.ES_248.numApps = 5
*.ES_249.numApps = 4
*.ES_250.numApps = 3
*.ES_251.numApps = 3
*.ES_252.numApps = 2
*.ES_253.numApps = 3
*.ES_254.numApps = 5
*.ES_255.numApps = 7
*.ES_256.numApps = 4
*.ES_257.numApps = 4
*.ES_258.numApps = 6
*.ES_259.numApps = 2
*.ES_260.numApps = 4
*.ES_261.numApps = 5
*.ES_262.numApps = 3
*.ES_263.numApps = 6
*.ES_264.numApps = 2
*.ES_265.numApps = 4
*.ES_266.numApps = 2
*.ES_267.numApps = 5
*.ES_268.numApps = 4
*.ES_269.numApps = 4
*.ES_270.numApps = 3
*.ES_271.numApps = 2
*.ES_272.numApps = 3
*.ES_273.numApps = 3
*.ES_274.numApps = 4
*.ES_275.numApps = 2
*.ES_276.numApps = 4
*.ES_277.numApps = 5
*.ES_278.numApps = 4
*.ES_279.numApps = 3
*.ES_280.numApps = 3
*.ES_281.numApps = 7
*.ES_282.numApps = 5
*.ES_283.numApps = 3
*.ES_284.numApps = 3
*.ES_285.numApps = 5
*.ES_286.numApps = 5
*.ES_287.numApps = 4
*.ES_288.numApps = 4
*.ES_289.numApps = 3
*.ES_290.numApps = 4
*.ES_291.numApps = 2
*.ES_292.numApps = 2
*.ES_293.numApps = 3
*.ES_294.numApps = 4
*.ES_295.numApps = 3
*.ES_296.numApps = 6
*.ES_297.numApps = 6
*.ES_298.numApps = 6
*.ES_299.numApps = 2
*.ES_300.numApps = 4
*.ES_301.numApps = 3
*.ES_302.numApps = 4
*.ES_303.numApps = 3
*.ES_304.numApps = 5
*.ES_305.numApps = 5
*.ES_306.numApps = 5
*.ES_307.numApps = 6
*.ES_308.numApps = 2
*.ES_309.numApps = 3
*.ES_310.numApps = 2
*.ES_311.numApps = 3
*.ES_312.numApps = 2
*.ES_313.numApps = 3
*.ES_314.numApps = 4
*.ES_315.numApps = 5
*.ES_316.numApps = 5
*.ES_317.numApps = 6
*.ES_318.numApps = 6
*.ES_319.numApps = 2
*.ES_320.numApps = 6
*.ES_321.numApps = 6
*.ES_322.numApps = 2
*.ES_323.numApps = 5
*.ES_324.numApps = 3
*.ES_325.numApps = 4
*.ES_326.numApps = 6
*.ES_327.numApps = 3
*.ES_328.numApps = 2
*.ES_329.numApps = 8
*.ES_330.numApps = 2
*.ES_331.numApps = 4
*.ES_332.numApps = 5
*.ES_333.numApps = 5
*.ES_334.numApps = 3
*.ES_335.numApps = 5
*.ES_336.numApps = 5
*.ES_337.numApps = 4
*.ES_338.numApps = 2
*.ES_339.numApps = 5
*.ES_340.numApps = 3
*.ES_341.numApps = 3
*.ES_342.numApps = 5
*.ES_343.numApps = 2
*.ES_344.numApps = 4
*.ES_345.numApps = 7
*.ES_346.numApps = 5
*.ES_347.numApps = 2
*.ES_348.numApps = 2
*.ES_349.numApps = 3
*.ES_350.numApps = 3
*.ES_351.numApps = 7
*.ES_352.numApps = 3
*.ES_353.numApps = 3
*.ES_354.numApps = 3
*.ES_355.numApps = 3
*.ES_356.numApps = 4
*.ES_357.numApps = 3
*.ES_358.numApps = 5
*.ES_359.numApps = 3
*.ES_360.numApps = 4
*.ES_361.numApps = 4
*.ES_362.numApps = 3
*.ES_363.numApps = 7
*.ES_364.numApps = 4
*.ES_365.numApps = 3
*.ES_366.numApps = 3
*.ES_367.numApps = 6
*.ES_368.numApps = 4
*.ES_369.numApps = 3
*.ES_370.numApps = 3
*.ES_371.numApps = 2
*.ES_372.numApps = 4
*.ES_373.numApps = 4
*.ES_374.numApps = 3
*.ES_375.numApps = 6
*.ES_376.numApps = 4
*.ES_377.numApps = 4
*.ES_378.numApps = 5
*.ES_379.numApps = 3
*.ES_380.numApps = 6
*.ES_381.numApps = 4
*.ES_382.numApps = 4
*.ES_383.numApps = 3
*.ES_384.numApps = 3
*.ES_385.numApps = 4
*.ES_386.numApps = 7
*.ES_387.numApps = 2
*.ES_388.numApps = 5
*.ES_389.numApps = 8
*.ES_390.numApps = 2
*.ES_391.numApps = 3
*.ES_392.numApps = 3
*.ES_393.numApps = 3
*.ES_394.numApps = 4
*.ES_395.numApps = 4
*.ES_396.numApps = 2
*.ES_397.numApps = 6
*.ES_398.numApps = 4
*.ES_399.numApps = 6
*.ES_400.numApps = 2
*.ES_401.numApps = 4
*.ES_402.numApps = 5
*.ES_403.numApps = 6
*.ES_404.numApps = 2
*.ES_405.numApps = 4
*.ES_406.numApps = 5
*.ES_407.numApps = 3
*.ES_408.numApps = 2
*.ES_409.numApps = 4
*.ES_410.numApps = 3
*.ES_411.numApps = 2
*.ES_412.numApps = 4
*.ES_413.numApps = 6
*.ES_414.numApps = 3
*.ES_415.numApps = 4
*.ES_416.numApps = 2
*.ES_417.numApps = 4
*.ES_418.numApps = 4
*.ES_419.numApps = 3
*.ES_420.numApps = 4
*.ES_421.numApps = 2
*.ES_422.numApps = 4
*.ES_423.numApps = 4
*.ES_424.numApps = 4
*.ES_425.numApps = 4
*.ES_426.numApps = 5
*.ES_427.numApps = 6
*.ES_428.numApps = 2
*.ES_429.numApps = 3
*.ES_430.numApps = 4
*.ES_431.numApps = 3
*.ES_432.numApps = 5
*.ES_433.numApps = 5
*.ES_434.numApps = 4
*.ES_435.numApps = 6
*.ES_436.numApps = 4
*.ES_437.numApps = 4
*.ES_438.numApps = 2
*.ES_439.numApps = 6
*.ES_440.numApps = 6
*.ES_441.numApps = 4
*.ES_442.numApps = 5
*.ES_443.numApps = 3
*.ES_444.numApps = 4
*.ES_445.numApps = 2
*.ES_446.numApps = 5
*.ES_447.numApps = 4
*.ES_448.numApps = 2
*.ES_449.numApps = 3
*.ES_450.numApps = 5
*.ES_451.numApps = 5
*.ES_452.numApps = 6
*.ES_453.numApps = 6
*.ES_454.numApps = 3
*.ES_455.numApps = 4
*.ES_456.numApps = 4
*.ES_457.numApps = 8
*.ES_458.numApps = 2
*.ES_459.numApps = 3
*.ES_460.numApps = 3
*.ES_461.numApps = 4
*.ES_462.numApps = 3
*.ES_463.numApps = 6
*.ES_464.numApps = 5
*.ES_465.numApps = 6
*.ES_466.numApps = 4
*.ES_467.numApps = 4
*.ES_468.numApps = 4
*.ES_469.numApps = 3
*.ES_470.numApps = 2
*.ES_471.numApps = 6
*.ES_472.numApps = 4
*.ES_473.numApps = 3
*.ES_474.numApps = 7
*.ES_475.numApps = 5
*.ES_476.numApps = 3
*.ES_477.numApps = 2
*.ES_478.numApps = 4
*.ES_479.numApps = 6
*.ES_480.numApps = 3
*.ES_481.numApps = 4
*.ES_482.numApps = 4
*.ES_483.numApps = 3
*.ES_484.numApps = 3
*.ES_485.numApps = 5
*.ES_486.numApps = 4
*.ES_487.numApps = 5
*.ES_488.numApps = 2
*.ES_489.numApps = 4
*.ES_490.numApps = 4
*.ES_491.numApps = 3
*.ES_492.numApps = 3
*.ES_493.numApps = 2
*.ES_494.numApps = 5
*.ES_495.numApps = 6
*.ES_496.numApps = 5
*.ES_497.numApps = 2
*.ES_498.numApps = 5
*.ES_499.numApps = 4
*.ES_500.numApps = 6
*.ES_501.numApps = 8
*.ES_502.numApps = 5
*.ES_503.numApps = 2
*.ES_504.numApps = 8
*.ES_505.numApps = 4
*.ES_506.numApps = 5
*.ES_507.numApps = 5
*.ES_508.numApps = 3
*.ES_509.numApps = 3
*.ES_510.numApps = 4
*.ES_511.numApps = 4
*.ES_512.numApps = 6
*.ES_1.app[0..1].typename = "UdpSourceApp"
*.ES_1.app[0].display-name = "ats-p5"
*.ES_1.app[0].io.destAddress = "ES_19"
*.ES_1.app[0].io.destPort = 1
*.ES_1.app[0].source.productionInterval = 2000us
*.ES_1.app[0].source.initialProductionOffset = 2000us
*.ES_1.app[0].source.packetLength = 793B
*.ES_1.app[1].display-name = "ats-p5"
*.ES_1.app[1].io.destAddress = "ES_467"
*.ES_1.app[1].io.destPort = 2
*.ES_1.app[1].source.productionInterval = 1000us
*.ES_1.app[1].source.initialProductionOffset = 1000us
*.ES_1.app[1].source.packetLength = 744B
*.ES_1.app[2..3].typename = "UdpSinkApp"
*.ES_1.app[2].io.localPort = 173
*.ES_1.app[3].io.localPort = 980
*.ES_2.app[0..1].typename = "UdpSourceApp"
*.ES_2.app[0].display-name = "ats-p0"
*.ES_2.app[0].io.destAddress = "ES_263"
*.ES_2.app[0].io.destPort = 3
*.ES_2.app[0].source.productionInterval = 1000us
*.ES_2.app[0].source.initialProductionOffset = 1000us
*.ES_2.app[0].source.packetLength = 671B
*.ES_2.app[1].display-name = "ats-p2"
*.ES_2.app[1].io.destAddress = "ES_140"
*.ES_2.app[1].io.destPort = 4
*.ES_2.app[1].source.productionInterval = 1000us
*.ES_2.app[1].source.initialProductionOffset = 1000us
*.ES_2.app[1].source.packetLength = 791B
*.ES_2.app[2..4].typename = "UdpSinkApp"
*.ES_2.app[2].io.localPort = 213
*.ES_2.app[3].io.localPort = 437
*.ES_2.app[4].io.localPort = 772
*.ES_3.app[0..1].typename = "UdpSourceApp"
*.ES_3.app[0].display-name = "ats-p3"
*.ES_3.app[0].io.destAddress = "ES_439"
*.ES_3.app[0].io.destPort = 5
*.ES_3.app[0].source.productionInterval = 1000us
*.ES_3.app[0].source.initialProductionOffset = 1000us
*.ES_3.app[0].source.packetLength = 633B
*.ES_3.app[1].display-name = "ats-p5"
*.ES_3.app[1].io.destAddress = "ES_5"
*.ES_3.app[1].io.destPort = 6
*.ES_3.app[1].source.productionInterval = 1000us
*.ES_3.app[1].source.initialProductionOffset = 1000us
*.ES_3.app[1].source.packetLength = 881B
*.ES_3.app[2..5].typename = "UdpSinkApp"
*.ES_3.app[2].io.localPort = 523
*.ES_3.app[3].io.localPort = 639
*.ES_3.app[4].io.localPort = 958
*.ES_3.app[5].io.localPort = 977
*.ES_4.app[0..1].typename = "UdpSourceApp"
*.ES_4.app[0].display-name = "ats-p4"
*.ES_4.app[0].io.destAddress = "ES_475"
*.ES_4.app[0].io.destPort = 7
*.ES_4.app[0].source.productionInterval = 1000us
*.ES_4.app[0].source.initialProductionOffset = 1000us
*.ES_4.app[0].source.packetLength = 671B
*.ES_4.app[1].display-name = "ats-p2"
*.ES_4.app[1].io.destAddress = "ES_141"
*.ES_4.app[1].io.destPort = 8
*.ES_4.app[1].source.productionInterval = 500us
*.ES_4.app[1].source.initialProductionOffset = 500us
*.ES_4.app[1].source.packetLength = 544B
*.ES_4.app[2..4].typename = "UdpSinkApp"
*.ES_4.app[2].io.localPort = 230
*.ES_4.app[3].io.localPort = 381
*.ES_4.app[4].io.localPort = 932
*.ES_5.app[0..1].typename = "UdpSourceApp"
*.ES_5.app[0].display-name = "ats-p5"
*.ES_5.app[0].io.destAddress = "ES_10"
*.ES_5.app[0].io.destPort = 9
*.ES_5.app[0].source.productionInterval = 2000us
*.ES_5.app[0].source.initialProductionOffset = 2000us
*.ES_5.app[0].source.packetLength = 921B
*.ES_5.app[1].display-name = "ats-p4"
*.ES_5.app[1].io.destAddress = "ES_117"
*.ES_5.app[1].io.destPort = 10
*.ES_5.app[1].source.productionInterval = 2000us
*.ES_5.app[1].source.initialProductionOffset = 2000us
*.ES_5.app[1].source.packetLength = 783B
*.ES_5.app[2..4].typename = "UdpSinkApp"
*.ES_5.app[2].io.localPort = 6
*.ES_5.app[3].io.localPort = 225
*.ES_5.app[4].io.localPort = 412
*.ES_6.app[0..1].typename = "UdpSourceApp"
*.ES_6.app[0].display-name = "ats-p6"
*.ES_6.app[0].io.destAddress = "ES_58"
*.ES_6.app[0].io.destPort = 11
*.ES_6.app[0].source.productionInterval = 2000us
*.ES_6.app[0].source.initialProductionOffset = 2000us
*.ES_6.app[0].source.packetLength = 713B
*.ES_6.app[1].display-name = "ats-p4"
*.ES_6.app[1].io.destAddress = "ES_362"
*.ES_6.app[1].io.destPort = 12
*.ES_6.app[1].source.productionInterval = 2000us
*.ES_6.app[1].source.initialProductionOffset = 2000us
*.ES_6.app[1].source.packetLength = 689B
*.ES_6.app[2].typename = "UdpSinkApp"
*.ES_6.app[2].io.localPort = 306
*.ES_7.app[0..1].typename = "UdpSourceApp"
*.ES_7.app[0].display-name = "ats-p1"
*.ES_7.app[0].io.destAddress = "ES_245"
*.ES_7.app[0].io.destPort = 13
*.ES_7.app[0].source.productionInterval = 1000us
*.ES_7.app[0].source.initialProductionOffset = 1000us
*.ES_7.app[0].source.packetLength = 912B
*.ES_7.app[1].display-name = "ats-p4"
*.ES_7.app[1].io.destAddress = "ES_296"
*.ES_7.app[1].io.destPort = 14
*.ES_7.app[1].source.productionInterval = 2000us
*.ES_7.app[1].source.initialProductionOffset = 2000us
*.ES_7.app[1].source.packetLength = 697B
*.ES_7.app[2].typename = "UdpSinkApp"
*.ES_7.app[2].io.localPort = 1010
*.ES_8.app[0..1].typename = "UdpSourceApp"
*.ES_8.app[0].display-name = "ats-p0"
*.ES_8.app[0].io.destAddress = "ES_152"
*.ES_8.app[0].io.destPort = 15
*.ES_8.app[0].source.productionInterval = 500us
*.ES_8.app[0].source.initialProductionOffset = 500us
*.ES_8.app[0].source.packetLength = 705B
*.ES_8.app[1].display-name = "ats-p6"
*.ES_8.app[1].io.destAddress = "ES_463"
*.ES_8.app[1].io.destPort = 16
*.ES_8.app[1].source.productionInterval = 2000us
*.ES_8.app[1].source.initialProductionOffset = 2000us
*.ES_8.app[1].source.packetLength = 562B
*.ES_8.app[2].typename = "UdpSinkApp"
*.ES_8.app[2].io.localPort = 762
*.ES_9.app[0..1].typename = "UdpSourceApp"
*.ES_9.app[0].display-name = "ats-p5"
*.ES_9.app[0].io.destAddress = "ES_232"
*.ES_9.app[0].io.destPort = 17
*.ES_9.app[0].source.productionInterval = 500us
*.ES_9.app[0].source.initialProductionOffset = 500us
*.ES_9.app[0].source.packetLength = 559B
*.ES_9.app[1].display-name = "ats-p3"
*.ES_9.app[1].io.destAddress = "ES_301"
*.ES_9.app[1].io.destPort = 18
*.ES_9.app[1].source.productionInterval = 1000us
*.ES_9.app[1].source.initialProductionOffset = 1000us
*.ES_9.app[1].source.packetLength = 944B
*.ES_9.app[2..5].typename = "UdpSinkApp"
*.ES_9.app[2].io.localPort = 426
*.ES_9.app[3].io.localPort = 485
*.ES_9.app[4].io.localPort = 514
*.ES_9.app[5].io.localPort = 837
*.ES_10.app[0..1].typename = "UdpSourceApp"
*.ES_10.app[0].display-name = "ats-p5"
*.ES_10.app[0].io.destAddress = "ES_181"
*.ES_10.app[0].io.destPort = 19
*.ES_10.app[0].source.productionInterval = 500us
*.ES_10.app[0].source.initialProductionOffset = 500us
*.ES_10.app[0].source.packetLength = 594B
*.ES_10.app[1].display-name = "ats-p6"
*.ES_10.app[1].io.destAddress = "ES_41"
*.ES_10.app[1].io.destPort = 20
*.ES_10.app[1].source.productionInterval = 500us
*.ES_10.app[1].source.initialProductionOffset = 500us
*.ES_10.app[1].source.packetLength = 693B
*.ES_10.app[2..3].typename = "UdpSinkApp"
*.ES_10.app[2].io.localPort = 9
*.ES_10.app[3].io.localPort = 102
*.ES_11.app[0..1].typename = "UdpSourceApp"
*.ES_11.app[0].display-name = "ats-p7"
*.ES_11.app[0].io.destAddress = "ES_479"
*.ES_11.app[0].io.destPort = 21
*.ES_11.app[0].source.productionInterval = 2000us
*.ES_11.app[0].source.initialProductionOffset = 2000us
*.ES_11.app[0].source.packetLength = 978B
*.ES_11.app[1].display-name = "ats-p5"
*.ES_11.app[1].io.destAddress = "ES_459"
*.ES_11.app[1].io.destPort = 22
*.ES_11.app[1].source.productionInterval = 1000us
*.ES_11.app[1].source.initialProductionOffset = 1000us
*.ES_11.app[1].source.packetLength = 782B
*.ES_11.app[2..3].typename = "UdpSinkApp"
*.ES_11.app[2].io.localPort = 220
*.ES_11.app[3].io.localPort = 622
*.ES_12.app[0..1].typename = "UdpSourceApp"
*.ES_12.app[0].display-name = "ats-p4"
*.ES_12.app[0].io.destAddress = "ES_59"
*.ES_12.app[0].io.destPort = 23
*.ES_12.app[0].source.productionInterval = 2000us
*.ES_12.app[0].source.initialProductionOffset = 2000us
*.ES_12.app[0].source.packetLength = 675B
*.ES_12.app[1].display-name = "ats-p1"
*.ES_12.app[1].io.destAddress = "ES_352"
*.ES_12.app[1].io.destPort = 24
*.ES_12.app[1].source.productionInterval = 2000us
*.ES_12.app[1].source.initialProductionOffset = 2000us
*.ES_12.app[1].source.packetLength = 729B
*.ES_12.app[2].typename = "UdpSinkApp"
*.ES_12.app[2].io.localPort = 525
*.ES_13.app[0..1].typename = "UdpSourceApp"
*.ES_13.app[0].display-name = "ats-p6"
*.ES_13.app[0].io.destAddress = "ES_121"
*.ES_13.app[0].io.destPort = 25
*.ES_13.app[0].source.productionInterval = 2000us
*.ES_13.app[0].source.initialProductionOffset = 2000us
*.ES_13.app[0].source.packetLength = 655B
*.ES_13.app[1].display-name = "ats-p0"
*.ES_13.app[1].io.destAddress = "ES_193"
*.ES_13.app[1].io.destPort = 26
*.ES_13.app[1].source.productionInterval = 1000us
*.ES_13.app[1].source.initialProductionOffset = 1000us
*.ES_13.app[1].source.packetLength = 612B
*.ES_13.app[2..3].typename = "UdpSinkApp"
*.ES_13.app[2].io.localPort = 242
*.ES_13.app[3].io.localPort = 964
*.ES_14.app[0..1].typename = "UdpSourceApp"
*.ES_14.app[0].display-name = "ats-p7"
*.ES_14.app[0].io.destAddress = "ES_64"
*.ES_14.app[0].io.destPort = 27
*.ES_14.app[0].source.productionInterval = 2000us
*.ES_14.app[0].source.initialProductionOffset = 2000us
*.ES_14.app[0].source.packetLength = 646B
*.ES_14.app[1].display-name = "ats-p2"
*.ES_14.app[1].io.destAddress = "ES_181"
*.ES_14.app[1].io.destPort = 28
*.ES_14.app[1].source.productionInterval = 2000us
*.ES_14.app[1].source.initialProductionOffset = 2000us
*.ES_14.app[1].source.packetLength = 955B
*.ES_14.app[2].typename = "UdpSinkApp"
*.ES_14.app[2].io.localPort = 34
*.ES_15.app[0..1].typename = "UdpSourceApp"
*.ES_15.app[0].display-name = "ats-p5"
*.ES_15.app[0].io.destAddress = "ES_457"
*.ES_15.app[0].io.destPort = 29
*.ES_15.app[0].source.productionInterval = 2000us
*.ES_15.app[0].source.initialProductionOffset = 2000us
*.ES_15.app[0].source.packetLength = 752B
*.ES_15.app[1].display-name = "ats-p2"
*.ES_15.app[1].io.destAddress = "ES_48"
*.ES_15.app[1].io.destPort = 30
*.ES_15.app[1].source.productionInterval = 2000us
*.ES_15.app[1].source.initialProductionOffset = 2000us
*.ES_15.app[1].source.packetLength = 706B
*.ES_15.app[2..5].typename = "UdpSinkApp"
*.ES_15.app[2].io.localPort = 63
*.ES_15.app[3].io.localPort = 286
*.ES_15.app[4].io.localPort = 897
*.ES_15.app[5].io.localPort = 1020
*.ES_16.app[0..1].typename = "UdpSourceApp"
*.ES_16.app[0].display-name = "ats-p2"
*.ES_16.app[0].io.destAddress = "ES_79"
*.ES_16.app[0].io.destPort = 31
*.ES_16.app[0].source.productionInterval = 1000us
*.ES_16.app[0].source.initialProductionOffset = 1000us
*.ES_16.app[0].source.packetLength = 508B
*.ES_16.app[1].display-name = "ats-p5"
*.ES_16.app[1].io.destAddress = "ES_171"
*.ES_16.app[1].io.destPort = 32
*.ES_16.app[1].source.productionInterval = 1000us
*.ES_16.app[1].source.initialProductionOffset = 1000us
*.ES_16.app[1].source.packetLength = 604B
*.ES_16.app[2].typename = "UdpSinkApp"
*.ES_16.app[2].io.localPort = 79
*.ES_17.app[0..1].typename = "UdpSourceApp"
*.ES_17.app[0].display-name = "ats-p3"
*.ES_17.app[0].io.destAddress = "ES_501"
*.ES_17.app[0].io.destPort = 33
*.ES_17.app[0].source.productionInterval = 2000us
*.ES_17.app[0].source.initialProductionOffset = 2000us
*.ES_17.app[0].source.packetLength = 645B
*.ES_17.app[1].display-name = "ats-p0"
*.ES_17.app[1].io.destAddress = "ES_14"
*.ES_17.app[1].io.destPort = 34
*.ES_17.app[1].source.productionInterval = 500us
*.ES_17.app[1].source.initialProductionOffset = 500us
*.ES_17.app[1].source.packetLength = 635B
*.ES_17.app[2..3].typename = "UdpSinkApp"
*.ES_17.app[2].io.localPort = 209
*.ES_17.app[3].io.localPort = 722
*.ES_18.app[0..1].typename = "UdpSourceApp"
*.ES_18.app[0].display-name = "ats-p7"
*.ES_18.app[0].io.destAddress = "ES_238"
*.ES_18.app[0].io.destPort = 35
*.ES_18.app[0].source.productionInterval = 2000us
*.ES_18.app[0].source.initialProductionOffset = 2000us
*.ES_18.app[0].source.packetLength = 576B
*.ES_18.app[1].display-name = "ats-p1"
*.ES_18.app[1].io.destAddress = "ES_306"
*.ES_18.app[1].io.destPort = 36
*.ES_18.app[1].source.productionInterval = 1000us
*.ES_18.app[1].source.initialProductionOffset = 1000us
*.ES_18.app[1].source.packetLength = 510B
*.ES_19.app[0..1].typename = "UdpSourceApp"
*.ES_19.app[0].display-name = "ats-p6"
*.ES_19.app[0].io.destAddress = "ES_140"
*.ES_19.app[0].io.destPort = 37
*.ES_19.app[0].source.productionInterval = 1000us
*.ES_19.app[0].source.initialProductionOffset = 1000us
*.ES_19.app[0].source.packetLength = 728B
*.ES_19.app[1].display-name = "ats-p1"
*.ES_19.app[1].io.destAddress = "ES_496"
*.ES_19.app[1].io.destPort = 38
*.ES_19.app[1].source.productionInterval = 2000us
*.ES_19.app[1].source.initialProductionOffset = 2000us
*.ES_19.app[1].source.packetLength = 660B
*.ES_19.app[2].typename = "UdpSinkApp"
*.ES_19.app[2].io.localPort = 1
*.ES_20.app[0..1].typename = "UdpSourceApp"
*.ES_20.app[0].display-name = "ats-p7"
*.ES_20.app[0].io.destAddress = "ES_274"
*.ES_20.app[0].io.destPort = 39
*.ES_20.app[0].source.productionInterval = 1000us
*.ES_20.app[0].source.initialProductionOffset = 1000us
*.ES_20.app[0].source.packetLength = 843B
*.ES_20.app[1].display-name = "ats-p5"
*.ES_20.app[1].io.destAddress = "ES_419"
*.ES_20.app[1].io.destPort = 40
*.ES_20.app[1].source.productionInterval = 500us
*.ES_20.app[1].source.initialProductionOffset = 500us
*.ES_20.app[1].source.packetLength = 623B
*.ES_20.app[2].typename = "UdpSinkApp"
*.ES_20.app[2].io.localPort = 501
*.ES_21.app[0..1].typename = "UdpSourceApp"
*.ES_21.app[0].display-name = "ats-p6"
*.ES_21.app[0].io.destAddress = "ES_407"
*.ES_21.app[0].io.destPort = 41
*.ES_21.app[0].source.productionInterval = 1000us
*.ES_21.app[0].source.initialProductionOffset = 1000us
*.ES_21.app[0].source.packetLength = 718B
*.ES_21.app[1].display-name = "ats-p1"
*.ES_21.app[1].io.destAddress = "ES_314"
*.ES_21.app[1].io.destPort = 42
*.ES_21.app[1].source.productionInterval = 2000us
*.ES_21.app[1].source.initialProductionOffset = 2000us
*.ES_21.app[1].source.packetLength = 629B
*.ES_22.app[0..1].typename = "UdpSourceApp"
*.ES_22.app[0].display-name = "ats-p7"
*.ES_22.app[0].io.destAddress = "ES_175"
*.ES_22.app[0].io.destPort = 43
*.ES_22.app[0].source.productionInterval = 1000us
*.ES_22.app[0].source.initialProductionOffset = 1000us
*.ES_22.app[0].source.packetLength = 500B
*.ES_22.app[1].display-name = "ats-p4"
*.ES_22.app[1].io.destAddress = "ES_148"
*.ES_22.app[1].io.destPort = 44
*.ES_22.app[1].source.productionInterval = 2000us
*.ES_22.app[1].source.initialProductionOffset = 2000us
*.ES_22.app[1].source.packetLength = 882B
*.ES_22.app[2..3].typename = "UdpSinkApp"
*.ES_22.app[2].io.localPort = 440
*.ES_22.app[3].io.localPort = 844
*.ES_23.app[0..1].typename = "UdpSourceApp"
*.ES_23.app[0].display-name = "ats-p7"
*.ES_23.app[0].io.destAddress = "ES_307"
*.ES_23.app[0].io.destPort = 45
*.ES_23.app[0].source.productionInterval = 2000us
*.ES_23.app[0].source.initialProductionOffset = 2000us
*.ES_23.app[0].source.packetLength = 740B
*.ES_23.app[1].display-name = "ats-p5"
*.ES_23.app[1].io.destAddress = "ES_164"
*.ES_23.app[1].io.destPort = 46
*.ES_23.app[1].source.productionInterval = 1000us
*.ES_23.app[1].source.initialProductionOffset = 1000us
*.ES_23.app[1].source.packetLength = 924B
*.ES_23.app[2..4].typename = "UdpSinkApp"
*.ES_23.app[2].io.localPort = 319
*.ES_23.app[3].io.localPort = 420
*.ES_23.app[4].io.localPort = 935
*.ES_24.app[0..1].typename = "UdpSourceApp"
*.ES_24.app[0].display-name = "ats-p6"
*.ES_24.app[0].io.destAddress = "ES_351"
*.ES_24.app[0].io.destPort = 47
*.ES_24.app[0].source.productionInterval = 2000us
*.ES_24.app[0].source.initialProductionOffset = 2000us
*.ES_24.app[0].source.packetLength = 894B
*.ES_24.app[1].display-name = "ats-p2"
*.ES_24.app[1].io.destAddress = "ES_72"
*.ES_24.app[1].io.destPort = 48
*.ES_24.app[1].source.productionInterval = 1000us
*.ES_24.app[1].source.initialProductionOffset = 1000us
*.ES_24.app[1].source.packetLength = 780B
*.ES_24.app[2..3].typename = "UdpSinkApp"
*.ES_24.app[2].io.localPort = 657
*.ES_24.app[3].io.localPort = 778
*.ES_25.app[0..1].typename = "UdpSourceApp"
*.ES_25.app[0].display-name = "ats-p7"
*.ES_25.app[0].io.destAddress = "ES_405"
*.ES_25.app[0].io.destPort = 49
*.ES_25.app[0].source.productionInterval = 2000us
*.ES_25.app[0].source.initialProductionOffset = 2000us
*.ES_25.app[0].source.packetLength = 611B
*.ES_25.app[1].display-name = "ats-p2"
*.ES_25.app[1].io.destAddress = "ES_155"
*.ES_25.app[1].io.destPort = 50
*.ES_25.app[1].source.productionInterval = 2000us
*.ES_25.app[1].source.initialProductionOffset = 2000us
*.ES_25.app[1].source.packetLength = 786B
*.ES_25.app[2..4].typename = "UdpSinkApp"
*.ES_25.app[2].io.localPort = 610
*.ES_25.app[3].io.localPort = 632
*.ES_25.app[4].io.localPort = 860
*.ES_26.app[0..1].typename = "UdpSourceApp"
*.ES_26.app[0].display-name = "ats-p2"
*.ES_26.app[0].io.destAddress = "ES_161"
*.ES_26.app[0].io.destPort = 51
*.ES_26.app[0].source.productionInterval = 1000us
*.ES_26.app[0].source.initialProductionOffset = 1000us
*.ES_26.app[0].source.packetLength = 848B
*.ES_26.app[1].display-name = "ats-p3"
*.ES_26.app[1].io.destAddress = "ES_151"
*.ES_26.app[1].io.destPort = 52
*.ES_26.app[1].source.productionInterval = 2000us
*.ES_26.app[1].source.initialProductionOffset = 2000us
*.ES_26.app[1].source.packetLength = 797B
*.ES_26.app[2..3].typename = "UdpSinkApp"
*.ES_26.app[2].io.localPort = 303
*.ES_26.app[3].io.localPort = 487
*.ES_27.app[0..1].typename = "UdpSourceApp"
*.ES_27.app[0].display-name = "ats-p6"
*.ES_27.app[0].io.destAddress = "ES_397"
*.ES_27.app[0].io.destPort = 53
*.ES_27.app[0].source.productionInterval = 1000us
*.ES_27.app[0].source.initialProductionOffset = 1000us
*.ES_27.app[0].source.packetLength = 954B
*.ES_27.app[1].display-name = "ats-p1"
*.ES_27.app[1].io.destAddress = "ES_88"
*.ES_27.app[1].io.destPort = 54
*.ES_27.app[1].source.productionInterval = 500us
*.ES_27.app[1].source.initialProductionOffset = 500us
*.ES_27.app[1].source.packetLength = 655B
*.ES_27.app[2..3].typename = "UdpSinkApp"
*.ES_27.app[2].io.localPort = 197
*.ES_27.app[3].io.localPort = 591
*.ES_28.app[0..1].typename = "UdpSourceApp"
*.ES_28.app[0].display-name = "ats-p2"
*.ES_28.app[0].io.destAddress = "ES_105"
*.ES_28.app[0].io.destPort = 55
*.ES_28.app[0].source.productionInterval = 2000us
*.ES_28.app[0].source.initialProductionOffset = 2000us
*.ES_28.app[0].source.packetLength = 863B
*.ES_28.app[1].display-name = "ats-p1"
*.ES_28.app[1].io.destAddress = "ES_121"
*.ES_28.app[1].io.destPort = 56
*.ES_28.app[1].source.productionInterval = 500us
*.ES_28.app[1].source.initialProductionOffset = 500us
*.ES_28.app[1].source.packetLength = 648B
*.ES_28.app[2..3].typename = "UdpSinkApp"
*.ES_28.app[2].io.localPort = 294
*.ES_28.app[3].io.localPort = 773
*.ES_29.app[0..1].typename = "UdpSourceApp"
*.ES_29.app[0].display-name = "ats-p7"
*.ES_29.app[0].io.destAddress = "ES_501"
*.ES_29.app[0].io.destPort = 57
*.ES_29.app[0].source.productionInterval = 2000us
*.ES_29.app[0].source.initialProductionOffset = 2000us